                                  MODFLOW-2005     
      U.S. GEOLOGICAL SURVEY MODULAR FINITE-DIFFERENCE GROUND-WATER FLOW MODEL
                            VERSION 1.12.00 2/3/2017

 LIST FILE: water-supply-problem.lst
                         UNIT   11

 OPENING water-supply-problem.cbc
 FILE TYPE:DATA(BINARY)   UNIT    9   STATUS:REPLACE
 FORMAT:BINARY                 ACCESS:SEQUENTIAL          

 OPENING water-supply-problem.dis
 FILE TYPE:DIS   UNIT   12   STATUS:OLD    
 FORMAT:FORMATTED              ACCESS:SEQUENTIAL          

 OPENING water-supply-problem.bas
 FILE TYPE:BAS6   UNIT   13   STATUS:OLD    
 FORMAT:FORMATTED              ACCESS:SEQUENTIAL          

 OPENING water-supply-problem.oc
 FILE TYPE:OC   UNIT   39   STATUS:OLD    
 FORMAT:FORMATTED              ACCESS:SEQUENTIAL          

 OPENING water-supply-problem.fhd
 FILE TYPE:DATA   UNIT   37   STATUS:REPLACE
 FORMAT:FORMATTED              ACCESS:SEQUENTIAL          

 OPENING water-supply-problem.fdn
 FILE TYPE:DATA   UNIT   38   STATUS:REPLACE
 FORMAT:FORMATTED              ACCESS:SEQUENTIAL          

 OPENING water-supply-problem.pcg
 FILE TYPE:PCG   UNIT   18   STATUS:OLD    
 FORMAT:FORMATTED              ACCESS:SEQUENTIAL          

 OPENING water-supply-problem.lpf
 FILE TYPE:LPF   UNIT   14   STATUS:OLD    
 FORMAT:FORMATTED              ACCESS:SEQUENTIAL          

 OPENING water-supply-problem.wel
 FILE TYPE:WEL   UNIT   20   STATUS:OLD    
 FORMAT:FORMATTED              ACCESS:SEQUENTIAL          

 OPENING water-supply-problem.riv
 FILE TYPE:RIV   UNIT   21   STATUS:OLD    
 FORMAT:FORMATTED              ACCESS:SEQUENTIAL          

 OPENING water-supply-problem.ob_hob
 FILE TYPE:HOB   UNIT   41   STATUS:OLD    
 FORMAT:FORMATTED              ACCESS:SEQUENTIAL          

 OPENING water-supply-problem.hob_out
 FILE TYPE:DATA   UNIT   42   STATUS:REPLACE
 FORMAT:FORMATTED              ACCESS:SEQUENTIAL          

 BAS -- BASIC PACKAGE, VERSION 7, 5/2/2005 INPUT READ FROM UNIT   13
 
 MODFLOW was compiled using mixed precision
 Precision of REAL variables:           6
 Precision of DOUBLE PRECISION variables:          15

 DISCRETIZATION INPUT DATA READ FROM UNIT   12
 # Discretization File created on 2017-05-30 by ModelMuse version 3.9.0.0.
 # Upper left corner: (-3591.30759913297, 2885.12681924406)
 # Lower left corner: (-3591.30759913297, -1590.75884085213)
 # Upper right corner: (2004.51303352977, 2885.12681924406)
 # Lower right corner: (2004.51303352977, -1590.75884085213)
 # Grid angle (in degrees counterclockwise): 0
    1 LAYERS        45 ROWS        56 COLUMNS
    1 STRESS PERIOD(S) IN SIMULATION
 MODEL TIME UNIT IS SECONDS
 MODEL LENGTH UNIT IS FEET
  Confining bed flag for each layer:
   0



                               DELR
 READING ON UNIT   12 WITH FORMAT: (FREE)              
   99.925       99.925       99.925       99.925       99.925    
   99.925       99.925       99.925       99.925       99.925    
   99.925       99.925       99.925       99.925       99.925    
   99.925       99.925       99.925       99.925       99.925    
   99.925       99.925       99.925       99.925       99.925    
   99.925       99.925       99.925       99.925       99.925    
   99.925       99.925       99.925       99.925       99.925    
   99.925       99.925       99.925       99.925       99.925    
   99.925       99.925       99.925       99.925       99.925    
   99.925       99.925       99.925       99.925       99.925    
   99.925       99.925       99.925       99.925       99.925    
   99.925    



                               DELC
 READING ON UNIT   12 WITH FORMAT: (FREE)              
   99.464       99.464       99.464       99.464       99.464    
   99.464       99.464       99.464       99.464       99.464    
   99.464       99.464       99.464       99.464       99.464    
   99.464       99.464       99.464       99.464       99.464    
   99.464       99.464       99.464       99.464       99.464    
   99.464       99.464       99.464       99.464       99.464    
   99.464       99.464       99.464       99.464       99.464    
   99.464       99.464       99.464       99.464       99.464    
   99.464       99.464       99.464       99.464       99.464    

 TOP ELEVATION OF LAYER 1 =   0.00000    



             MODEL LAYER BOTTOM EL. FOR LAYER   1
 READING ON UNIT   12 WITH FORMAT: (FREE)              

            1           2           3           4           5           6           7           8           9          10
           11          12          13          14          15          16          17          18          19          20
           21          22          23          24          25          26          27          28          29          30
           31          32          33          34          35          36          37          38          39          40
           41          42          43          44          45          46          47          48          49          50
           51          52          53          54          55          56
 ........................................................................................................................
   1    0.000       0.000       0.000       0.000       0.000       0.000       0.000       0.000       0.000       0.000    
        0.000       0.000       0.000       0.000       0.000       0.000       0.000       0.000       0.000       0.000    
        0.000       0.000       0.000       0.000      -10.00      -10.00       0.000       0.000       0.000       0.000    
        0.000       0.000       0.000       0.000       0.000       0.000       0.000       0.000       0.000       0.000    
        0.000       0.000       0.000       0.000       0.000       0.000       0.000       0.000       0.000       0.000    
        0.000       0.000       0.000       0.000       0.000       0.000    
   2    0.000       0.000       0.000       0.000       0.000       0.000       0.000       0.000       0.000       0.000    
        0.000       0.000       0.000       0.000       0.000       0.000       0.000       0.000       0.000       0.000    
        0.000       0.000       0.000       0.000      -10.00      -10.00      -10.00       0.000       0.000       0.000    
        0.000       0.000       0.000       0.000       0.000       0.000       0.000       0.000       0.000       0.000    
        0.000       0.000       0.000       0.000       0.000       0.000       0.000       0.000       0.000       0.000    
        0.000       0.000       0.000       0.000       0.000       0.000    
   3    0.000       0.000       0.000       0.000       0.000       0.000       0.000       0.000       0.000       0.000    
        0.000       0.000       0.000       0.000       0.000       0.000       0.000       0.000       0.000       0.000    
        0.000       0.000       0.000       0.000      -10.00      -10.00      -10.00      -10.00       0.000       0.000    
        0.000       0.000       0.000       0.000       0.000       0.000       0.000       0.000       0.000       0.000    
        0.000       0.000       0.000       0.000       0.000       0.000       0.000       0.000       0.000       0.000    
        0.000       0.000       0.000       0.000       0.000       0.000    
   4    0.000       0.000       0.000       0.000       0.000       0.000       0.000       0.000       0.000       0.000    
        0.000       0.000       0.000       0.000       0.000       0.000       0.000       0.000       0.000       0.000    
        0.000       0.000       0.000       0.000       0.000      -10.00      -10.00      -10.00      -10.00      -10.00    
        0.000       0.000       0.000       0.000       0.000       0.000       0.000       0.000       0.000       0.000    
        0.000       0.000       0.000       0.000       0.000       0.000       0.000       0.000       0.000       0.000    
        0.000       0.000       0.000       0.000       0.000       0.000    
   5    0.000       0.000       0.000       0.000       0.000       0.000       0.000       0.000       0.000       0.000    
        0.000       0.000       0.000       0.000       0.000       0.000       0.000       0.000       0.000       0.000    
        0.000       0.000       0.000       0.000       0.000      -10.00      -10.00      -10.00      -10.00      -10.00    
       -10.00      -10.00       0.000       0.000       0.000       0.000      -10.00      -10.00       0.000       0.000    
        0.000       0.000       0.000       0.000       0.000       0.000       0.000       0.000       0.000       0.000    
        0.000       0.000       0.000       0.000       0.000       0.000    
   6    0.000       0.000       0.000       0.000       0.000       0.000       0.000       0.000       0.000       0.000    
        0.000       0.000       0.000       0.000       0.000       0.000       0.000       0.000       0.000       0.000    
        0.000       0.000       0.000       0.000       0.000       0.000      -10.00      -10.00      -10.00      -10.00    
       -10.00      -10.00      -10.00      -10.00      -10.00      -10.00      -10.00      -10.00      -10.00      -10.00    
       -10.00      -10.00      -10.00      -10.00      -10.00       0.000       0.000       0.000       0.000       0.000    
        0.000       0.000       0.000       0.000       0.000       0.000    
   7    0.000       0.000       0.000       0.000       0.000       0.000       0.000       0.000       0.000       0.000    
        0.000       0.000       0.000       0.000       0.000       0.000       0.000       0.000       0.000       0.000    
        0.000       0.000       0.000       0.000       0.000       0.000       0.000      -10.00      -10.00      -10.00    
       -10.00      -10.00      -10.00      -10.00      -10.00      -10.00      -10.00      -10.00      -10.00      -10.00    
       -10.00      -10.00      -10.00      -10.00      -10.00       0.000       0.000       0.000       0.000       0.000    
        0.000       0.000       0.000       0.000       0.000       0.000    
   8    0.000       0.000       0.000       0.000       0.000       0.000       0.000       0.000       0.000       0.000    
        0.000       0.000       0.000       0.000       0.000       0.000       0.000       0.000       0.000       0.000    
        0.000       0.000       0.000       0.000       0.000       0.000       0.000      -10.00      -10.00      -10.00    
       -10.00      -10.00      -10.00      -10.00      -10.00      -10.00      -10.00      -10.00      -10.00      -10.00    
       -10.00      -10.00      -10.00      -10.00      -10.00      -10.00      -10.00      -10.00      -10.00      -10.00    
        0.000       0.000       0.000       0.000       0.000       0.000    
   9    0.000       0.000       0.000       0.000       0.000       0.000       0.000       0.000       0.000       0.000    
        0.000       0.000       0.000       0.000       0.000       0.000       0.000       0.000       0.000       0.000    
        0.000       0.000      -10.00      -10.00      -10.00      -10.00      -10.00      -10.00      -10.00      -10.00    
       -10.00      -10.00      -10.00      -10.00      -10.00      -10.00      -10.00      -10.00      -10.00      -10.00    
       -10.00      -10.00      -10.00      -10.00      -10.00      -10.00      -10.00      -10.00      -10.00      -10.00    
       -10.00       0.000       0.000       0.000       0.000       0.000    
  10    0.000       0.000       0.000       0.000       0.000       0.000       0.000       0.000       0.000       0.000    
        0.000       0.000       0.000       0.000       0.000       0.000       0.000       0.000       0.000       0.000    
        0.000      -10.00      -10.00      -10.00      -10.00      -10.00      -10.00      -10.00      -10.00      -10.00    
       -10.00      -10.00      -10.00      -10.00      -10.00      -10.00      -10.00      -10.00      -10.00      -10.00    
       -10.00      -10.00      -10.00      -10.00      -10.00      -10.00      -10.00      -10.00      -10.00      -10.00    
       -10.00       0.000       0.000       0.000       0.000       0.000    
  11    0.000       0.000       0.000       0.000       0.000       0.000       0.000       0.000       0.000       0.000    
        0.000       0.000       0.000       0.000       0.000       0.000       0.000       0.000       0.000       0.000    
        0.000      -10.00      -10.00      -10.00      -10.00      -10.00      -10.00      -10.00      -10.00      -10.00    
       -10.00      -10.00      -10.00      -10.00      -10.00      -10.00      -10.00      -10.00      -10.00      -10.00    
       -10.00      -10.00      -10.00      -10.00      -10.00      -10.00      -10.00      -10.00       0.000       0.000    
        0.000       0.000       0.000       0.000       0.000       0.000    
  12    0.000       0.000       0.000       0.000       0.000       0.000       0.000       0.000       0.000       0.000    
        0.000       0.000       0.000       0.000       0.000       0.000       0.000       0.000       0.000       0.000    
        0.000      -10.00      -10.00      -10.00      -10.00      -10.00      -10.00      -10.00      -10.00      -10.00    
       -10.00      -10.00      -10.00      -10.00      -10.00      -10.00      -10.00      -10.00      -10.00       0.000    
        0.000       0.000       0.000       0.000       0.000       0.000       0.000       0.000       0.000       0.000    
        0.000       0.000       0.000       0.000       0.000       0.000    
  13    0.000       0.000       0.000       0.000       0.000       0.000       0.000       0.000       0.000       0.000    
        0.000       0.000       0.000       0.000       0.000       0.000       0.000       0.000       0.000       0.000    
       -10.00      -10.00      -10.00      -10.00      -10.00      -10.00      -10.00      -10.00      -10.00      -10.00    
       -10.00      -10.00      -10.00      -10.00      -10.00      -10.00      -10.00      -10.00      -10.00       0.000    
        0.000       0.000       0.000       0.000       0.000       0.000       0.000       0.000       0.000       0.000    
        0.000       0.000       0.000       0.000       0.000       0.000    
  14    0.000       0.000       0.000       0.000       0.000       0.000       0.000       0.000       0.000       0.000    
        0.000       0.000       0.000       0.000       0.000       0.000       0.000       0.000      -10.00      -10.00    
       -10.00      -10.00      -10.00      -10.00      -10.00      -10.00      -10.00      -10.00      -10.00      -10.00    
       -10.00      -10.00      -10.00      -10.00      -10.00      -10.00      -10.00      -10.00      -10.00       0.000    
        0.000       0.000       0.000       0.000       0.000       0.000       0.000       0.000       0.000       0.000    
        0.000       0.000       0.000       0.000       0.000       0.000    
  15    0.000       0.000       0.000       0.000       0.000       0.000       0.000       0.000       0.000       0.000    
        0.000       0.000      -10.00       0.000       0.000       0.000       0.000      -10.00      -10.00      -10.00    
       -10.00      -10.00      -10.00      -10.00      -10.00      -10.00      -10.00      -10.00      -10.00      -10.00    
       -10.00      -10.00      -10.00      -10.00      -10.00      -10.00      -10.00      -10.00       0.000       0.000    
        0.000       0.000       0.000       0.000       0.000       0.000       0.000       0.000       0.000       0.000    
        0.000       0.000       0.000       0.000       0.000       0.000    
  16    0.000       0.000       0.000       0.000       0.000      -10.00      -10.00      -10.00       0.000       0.000    
       -10.00      -10.00      -10.00      -10.00      -10.00      -10.00      -10.00      -10.00      -10.00      -10.00    
       -10.00      -10.00      -10.00      -10.00      -10.00      -10.00      -10.00      -10.00      -10.00      -10.00    
       -10.00      -10.00      -10.00      -10.00      -10.00      -10.00      -10.00       0.000       0.000       0.000    
        0.000       0.000       0.000       0.000       0.000       0.000       0.000       0.000       0.000       0.000    
        0.000       0.000       0.000       0.000       0.000       0.000    
  17    0.000       0.000      -20.00      -20.00      -10.00      -10.00      -10.00      -10.00      -10.00      -10.00    
       -10.00      -10.00      -10.00      -10.00      -10.00      -10.00      -10.00      -10.00      -10.00      -10.00    
       -10.00      -10.00      -10.00      -10.00      -10.00      -10.00      -10.00      -10.00      -10.00      -10.00    
       -10.00      -10.00      -10.00      -10.00      -10.00      -10.00       0.000       0.000       0.000       0.000    
        0.000       0.000       0.000       0.000       0.000       0.000       0.000       0.000       0.000       0.000    
        0.000       0.000       0.000       0.000       0.000       0.000    
  18   -40.00      -40.00      -20.00      -20.00      -20.00      -10.00      -10.00      -10.00      -10.00      -10.00    
       -10.00      -10.00      -10.00      -10.00      -10.00      -10.00      -10.00      -10.00      -10.00      -10.00    
       -10.00      -10.00      -10.00      -10.00      -10.00      -10.00      -10.00      -10.00      -10.00      -10.00    
       -10.00      -10.00      -10.00      -10.00      -10.00      -10.00       0.000       0.000       0.000       0.000    
        0.000       0.000       0.000       0.000       0.000       0.000       0.000       0.000       0.000       0.000    
        0.000       0.000       0.000       0.000       0.000       0.000    
  19    0.000      -40.00      -40.00      -40.00      -20.00      -20.00      -20.00      -10.00      -10.00      -10.00    
       -10.00      -10.00      -10.00      -10.00      -10.00      -10.00      -10.00      -10.00      -10.00      -10.00    
       -10.00      -10.00      -10.00      -10.00      -10.00      -10.00      -10.00      -10.00      -10.00      -10.00    
       -10.00      -10.00      -10.00      -10.00      -10.00      -10.00      -10.00       0.000       0.000       0.000    
        0.000       0.000       0.000       0.000       0.000       0.000       0.000       0.000       0.000       0.000    
        0.000       0.000       0.000       0.000       0.000       0.000    
  20    0.000       0.000       0.000      -40.00      -40.00      -40.00      -40.00      -20.00      -20.00      -10.00    
       -10.00      -10.00      -10.00      -10.00      -10.00      -10.00      -10.00      -10.00      -10.00      -10.00    
       -10.00      -10.00      -10.00      -10.00      -10.00      -10.00      -10.00      -10.00      -10.00      -10.00    
       -10.00      -10.00      -10.00      -10.00      -10.00      -10.00      -10.00      -10.00       0.000       0.000    
        0.000       0.000       0.000       0.000       0.000       0.000       0.000       0.000       0.000       0.000    
        0.000       0.000       0.000       0.000       0.000       0.000    
  21    0.000       0.000       0.000       0.000       0.000      -40.00      -40.00      -40.00      -40.00      -20.00    
       -20.00      -10.00      -10.00      -10.00      -10.00      -10.00      -10.00      -10.00      -10.00      -10.00    
       -10.00      -10.00      -10.00      -10.00      -10.00      -10.00      -10.00      -10.00      -10.00      -10.00    
       -10.00      -10.00      -10.00      -10.00      -10.00      -10.00      -10.00      -10.00       0.000       0.000    
        0.000       0.000       0.000       0.000       0.000       0.000       0.000       0.000       0.000       0.000    
        0.000       0.000       0.000       0.000       0.000       0.000    
  22    0.000       0.000       0.000       0.000       0.000       0.000       0.000       0.000       0.000      -40.00    
       -40.00      -20.00      -20.00      -10.00      -10.00      -10.00      -10.00      -10.00      -10.00      -10.00    
       -10.00      -10.00      -10.00      -10.00      -10.00      -10.00      -10.00      -10.00      -10.00      -10.00    
       -10.00      -10.00      -10.00      -10.00      -10.00      -10.00      -10.00      -10.00       0.000       0.000    
        0.000       0.000       0.000       0.000       0.000       0.000       0.000       0.000       0.000       0.000    
        0.000       0.000       0.000       0.000       0.000       0.000    
  23    0.000       0.000       0.000       0.000       0.000       0.000       0.000       0.000       0.000       0.000    
       -40.00      -40.00      -40.00      -40.00      -20.00      -20.00      -20.00      -20.00      -20.00      -20.00    
       -20.00      -20.00      -20.00      -20.00      -20.00      -20.00      -20.00      -20.00      -20.00      -20.00    
       -20.00      -20.00      -20.00      -20.00      -20.00      -20.00      -20.00       0.000       0.000       0.000    
        0.000       0.000       0.000       0.000       0.000       0.000       0.000       0.000       0.000       0.000    
        0.000       0.000       0.000       0.000       0.000       0.000    
  24    0.000       0.000       0.000       0.000       0.000       0.000       0.000       0.000       0.000       0.000    
        0.000      -40.00      -40.00      -40.00      -40.00      -40.00      -40.00      -40.00      -40.00      -40.00    
       -40.00      -40.00      -40.00      -40.00      -40.00      -40.00      -40.00      -20.00      -20.00      -20.00    
       -20.00      -20.00      -20.00      -20.00      -20.00      -20.00      -20.00       0.000       0.000       0.000    
        0.000       0.000       0.000       0.000       0.000       0.000      -10.00      -10.00      -10.00      -10.00    
       -10.00      -10.00       0.000       0.000       0.000       0.000    
  25    0.000       0.000       0.000       0.000       0.000       0.000       0.000       0.000       0.000       0.000    
        0.000       0.000      -40.00      -40.00      -40.00      -40.00      -40.00      -40.00      -40.00      -40.00    
       -40.00      -40.00      -40.00      -40.00      -40.00      -40.00      -40.00      -40.00      -40.00      -40.00    
       -40.00      -40.00      -40.00      -40.00      -40.00      -40.00      -40.00      -40.00      -20.00      -20.00    
       -10.00      -10.00      -10.00      -10.00      -10.00      -10.00      -10.00      -10.00      -10.00      -10.00    
       -10.00      -10.00      -10.00       0.000       0.000       0.000    
  26    0.000       0.000       0.000       0.000       0.000       0.000       0.000       0.000       0.000       0.000    
        0.000       0.000       0.000      -40.00      -40.00      -40.00      -40.00      -40.00      -40.00      -40.00    
       -40.00      -40.00      -40.00      -40.00      -40.00      -40.00      -40.00      -40.00      -40.00      -40.00    
       -40.00      -40.00      -40.00      -40.00      -40.00      -40.00      -40.00      -40.00      -40.00      -20.00    
       -20.00      -10.00      -10.00      -10.00      -10.00      -10.00      -10.00      -10.00      -10.00      -10.00    
       -10.00      -10.00      -10.00       0.000       0.000       0.000    
  27    0.000       0.000       0.000       0.000       0.000       0.000       0.000       0.000       0.000       0.000    
        0.000       0.000       0.000       0.000       0.000       0.000      -40.00      -40.00      -40.00      -40.00    
       -40.00      -40.00      -40.00      -40.00      -40.00      -40.00      -40.00      -40.00      -40.00      -40.00    
       -40.00      -40.00      -40.00      -40.00      -40.00      -40.00      -40.00      -40.00      -40.00      -20.00    
       -20.00      -20.00      -10.00      -10.00      -10.00      -10.00      -10.00      -10.00      -10.00      -10.00    
       -10.00      -10.00      -10.00      -10.00       0.000       0.000    
  28    0.000       0.000       0.000       0.000       0.000       0.000       0.000       0.000       0.000       0.000    
        0.000       0.000       0.000       0.000       0.000       0.000       0.000       0.000      -40.00      -40.00    
       -40.00      -40.00      -40.00      -40.00      -40.00      -40.00      -40.00      -40.00      -40.00      -40.00    
       -40.00      -40.00      -40.00      -40.00      -40.00      -40.00      -40.00      -40.00      -40.00      -40.00    
       -20.00      -20.00      -10.00      -10.00      -10.00      -10.00      -10.00      -10.00      -10.00      -10.00    
       -10.00      -10.00      -10.00      -10.00      -10.00       0.000    
  29    0.000       0.000       0.000       0.000       0.000       0.000       0.000       0.000       0.000       0.000    
        0.000       0.000       0.000       0.000       0.000       0.000       0.000       0.000       0.000      -40.00    
       -40.00      -40.00      -40.00      -40.00      -40.00      -40.00      -40.00      -40.00      -40.00      -40.00    
       -40.00      -40.00      -40.00      -40.00      -40.00      -40.00      -40.00      -40.00      -40.00      -40.00    
       -40.00      -20.00      -20.00      -10.00      -10.00      -10.00      -10.00      -10.00      -10.00      -10.00    
       -10.00      -10.00      -10.00      -10.00      -10.00      -10.00    
  30    0.000       0.000       0.000       0.000       0.000       0.000       0.000       0.000       0.000       0.000    
        0.000       0.000       0.000       0.000       0.000       0.000       0.000       0.000       0.000      -40.00    
       -40.00      -40.00      -40.00      -40.00      -40.00      -40.00      -40.00      -40.00      -40.00      -40.00    
       -40.00      -40.00      -40.00      -40.00      -40.00      -40.00      -40.00      -40.00      -40.00      -40.00    
       -40.00      -20.00      -20.00      -20.00      -10.00      -10.00      -10.00      -10.00      -10.00      -10.00    
       -10.00      -10.00      -10.00      -10.00      -10.00       0.000    
  31    0.000       0.000       0.000       0.000       0.000       0.000       0.000       0.000       0.000       0.000    
        0.000       0.000       0.000       0.000       0.000       0.000       0.000       0.000       0.000      -40.00    
       -40.00      -40.00      -40.00      -40.00      -40.00      -40.00      -40.00      -40.00      -40.00      -40.00    
       -40.00      -40.00      -40.00      -40.00      -40.00      -40.00      -40.00      -40.00      -40.00      -40.00    
       -40.00      -40.00      -20.00      -20.00      -20.00      -10.00      -10.00      -10.00      -10.00      -10.00    
       -10.00      -10.00      -10.00      -10.00       0.000       0.000    
  32    0.000       0.000       0.000       0.000       0.000       0.000       0.000       0.000       0.000       0.000    
        0.000       0.000       0.000       0.000       0.000       0.000       0.000       0.000       0.000      -40.00    
       -40.00      -40.00      -40.00      -40.00      -40.00      -40.00      -40.00      -40.00      -40.00      -40.00    
       -40.00      -40.00      -40.00      -40.00      -40.00      -40.00      -40.00      -40.00      -40.00      -40.00    
       -40.00      -40.00      -40.00      -20.00      -20.00      -10.00      -10.00      -10.00      -10.00      -10.00    
        0.000       0.000       0.000       0.000       0.000       0.000    
  33    0.000       0.000       0.000       0.000       0.000       0.000       0.000       0.000       0.000       0.000    
        0.000       0.000       0.000       0.000       0.000       0.000       0.000       0.000       0.000      -40.00    
       -40.00      -40.00      -40.00      -40.00      -40.00      -40.00      -40.00      -40.00      -40.00      -40.00    
       -40.00      -40.00      -40.00      -40.00      -40.00      -40.00      -40.00      -40.00      -40.00      -40.00    
       -40.00      -40.00      -40.00      -20.00      -20.00      -10.00      -10.00      -10.00      -10.00      -10.00    
        0.000       0.000       0.000       0.000       0.000       0.000    
  34    0.000       0.000       0.000       0.000       0.000       0.000       0.000       0.000       0.000       0.000    
        0.000       0.000       0.000       0.000       0.000       0.000       0.000       0.000       0.000      -20.00    
       -40.00      -40.00      -40.00      -40.00      -40.00      -40.00      -40.00      -40.00      -40.00      -40.00    
       -40.00      -40.00      -40.00      -40.00      -40.00      -40.00      -40.00      -40.00      -40.00      -40.00    
       -40.00      -40.00      -40.00      -40.00      -20.00      -20.00      -10.00      -10.00      -10.00      -10.00    
        0.000       0.000       0.000       0.000       0.000       0.000    
  35    0.000       0.000       0.000       0.000       0.000       0.000       0.000       0.000       0.000       0.000    
        0.000       0.000       0.000       0.000       0.000       0.000       0.000       0.000       0.000      -20.00    
       -20.00      -40.00      -40.00      -40.00      -40.00      -40.00      -40.00      -40.00      -40.00      -40.00    
       -40.00      -40.00      -40.00      -40.00      -40.00      -40.00      -40.00      -40.00      -40.00      -40.00    
       -40.00      -40.00      -40.00      -40.00      -40.00      -20.00      -20.00      -10.00      -10.00      -10.00    
        0.000       0.000       0.000       0.000       0.000       0.000    
  36    0.000       0.000       0.000       0.000       0.000       0.000       0.000       0.000       0.000       0.000    
        0.000       0.000       0.000       0.000       0.000       0.000       0.000       0.000       0.000      -20.00    
       -20.00      -20.00      -40.00      -40.00      -40.00      -40.00      -40.00      -40.00      -40.00      -40.00    
       -40.00      -40.00      -40.00      -40.00      -40.00      -40.00      -40.00      -40.00      -40.00      -40.00    
       -40.00      -40.00      -40.00      -40.00      -40.00      -40.00      -20.00      -20.00      -10.00      -10.00    
       -10.00       0.000       0.000       0.000       0.000       0.000    
  37    0.000       0.000       0.000       0.000       0.000       0.000       0.000       0.000       0.000       0.000    
        0.000       0.000       0.000       0.000       0.000       0.000       0.000       0.000       0.000      -20.00    
       -20.00      -20.00      -20.00      -20.00      -20.00      -40.00      -40.00      -40.00      -40.00      -40.00    
       -40.00      -40.00      -40.00      -40.00      -40.00      -40.00      -40.00      -40.00      -40.00      -40.00    
       -40.00      -40.00      -40.00      -40.00      -40.00      -40.00      -40.00      -20.00      -20.00      -10.00    
       -10.00       0.000       0.000       0.000       0.000       0.000    
  38    0.000       0.000       0.000       0.000       0.000       0.000       0.000       0.000       0.000       0.000    
        0.000       0.000       0.000       0.000       0.000       0.000       0.000       0.000       0.000      -20.00    
       -20.00      -20.00      -20.00      -20.00      -20.00      -20.00      -20.00      -40.00      -40.00      -40.00    
       -40.00      -40.00      -40.00      -40.00      -40.00      -40.00      -40.00      -40.00      -40.00      -40.00    
       -40.00      -40.00      -40.00      -40.00      -40.00      -40.00      -40.00      -40.00       0.000       0.000    
        0.000       0.000       0.000       0.000       0.000       0.000    
  39    0.000       0.000       0.000       0.000       0.000       0.000       0.000       0.000       0.000       0.000    
        0.000       0.000       0.000       0.000       0.000       0.000       0.000       0.000       0.000      -20.00    
       -20.00      -20.00      -20.00      -20.00      -20.00      -20.00      -20.00      -20.00      -40.00      -40.00    
       -40.00      -40.00      -40.00      -40.00      -40.00      -40.00      -40.00      -40.00      -40.00      -40.00    
       -40.00      -40.00      -40.00      -40.00      -40.00      -40.00      -40.00      -40.00       0.000       0.000    
        0.000       0.000       0.000       0.000       0.000       0.000    
  40    0.000       0.000       0.000       0.000       0.000       0.000       0.000       0.000       0.000       0.000    
        0.000       0.000       0.000       0.000       0.000       0.000       0.000       0.000       0.000      -20.00    
       -20.00      -20.00      -20.00      -20.00      -20.00      -20.00      -20.00      -20.00      -20.00      -20.00    
       -20.00      -20.00      -20.00      -40.00      -40.00      -40.00      -40.00      -40.00      -40.00      -40.00    
       -40.00      -40.00      -40.00      -40.00      -40.00      -40.00      -40.00       0.000       0.000       0.000    
        0.000       0.000       0.000       0.000       0.000       0.000    
  41    0.000       0.000       0.000       0.000       0.000       0.000       0.000       0.000       0.000       0.000    
        0.000       0.000       0.000       0.000       0.000       0.000       0.000       0.000      -20.00      -20.00    
       -20.00      -20.00      -20.00      -20.00      -20.00      -20.00      -20.00      -20.00      -20.00      -20.00    
       -20.00      -20.00      -20.00      -20.00      -20.00      -20.00      -20.00      -20.00      -20.00      -20.00    
       -20.00      -20.00      -20.00      -20.00      -40.00      -40.00       0.000       0.000       0.000       0.000    
        0.000       0.000       0.000       0.000       0.000       0.000    
  42    0.000       0.000       0.000       0.000       0.000       0.000       0.000       0.000       0.000       0.000    
        0.000       0.000       0.000       0.000       0.000       0.000       0.000       0.000      -20.00      -20.00    
       -20.00      -20.00      -20.00      -20.00      -20.00      -20.00      -20.00      -20.00      -20.00      -20.00    
       -20.00      -20.00      -20.00      -20.00      -20.00      -20.00      -20.00      -20.00      -20.00      -20.00    
       -20.00      -20.00      -20.00      -20.00      -20.00       0.000       0.000       0.000       0.000       0.000    
        0.000       0.000       0.000       0.000       0.000       0.000    
  43    0.000       0.000       0.000       0.000       0.000       0.000       0.000       0.000       0.000       0.000    
        0.000       0.000       0.000       0.000       0.000       0.000      -20.00      -20.00      -20.00      -20.00    
       -20.00      -20.00      -20.00      -20.00      -20.00      -20.00      -20.00      -20.00       0.000       0.000    
        0.000       0.000       0.000       0.000      -20.00      -20.00      -20.00      -20.00      -20.00      -20.00    
       -20.00      -20.00      -20.00      -20.00       0.000       0.000       0.000       0.000       0.000       0.000    
        0.000       0.000       0.000       0.000       0.000       0.000    
  44    0.000       0.000       0.000       0.000       0.000       0.000       0.000       0.000       0.000       0.000    
        0.000       0.000       0.000       0.000       0.000       0.000      -20.00      -20.00      -20.00      -20.00    
       -20.00      -20.00      -20.00      -20.00      -20.00      -20.00       0.000       0.000       0.000       0.000    
        0.000       0.000       0.000       0.000       0.000      -20.00      -20.00      -20.00      -20.00      -20.00    
       -20.00       0.000       0.000       0.000       0.000       0.000       0.000       0.000       0.000       0.000    
        0.000       0.000       0.000       0.000       0.000       0.000    
  45    0.000       0.000       0.000       0.000       0.000       0.000       0.000       0.000       0.000       0.000    
        0.000       0.000       0.000       0.000       0.000       0.000       0.000      -20.00      -20.00       0.000    
        0.000       0.000       0.000       0.000       0.000       0.000       0.000       0.000       0.000       0.000    
        0.000       0.000       0.000       0.000       0.000      -20.00      -20.00       0.000       0.000       0.000    
        0.000       0.000       0.000       0.000       0.000       0.000       0.000       0.000       0.000       0.000    
        0.000       0.000       0.000       0.000       0.000       0.000    


 STRESS PERIOD     LENGTH       TIME STEPS     MULTIPLIER FOR DELT    SS FLAG
 ----------------------------------------------------------------------------
        1         180000.0         16                    1.414         TR

 TRANSIENT SIMULATION



 
 # Basic Package file created on 2017-05-30 by ModelMuse version 3.9.0.0.        
 THE FREE FORMAT OPTION HAS BEEN SELECTED
 THE PRINTTIME OPTION HAS BEEN SELECTED
 CALCULATE FLOW BETWEEN ADJACENT CONSTANT-HEAD CELLS



                     BOUNDARY ARRAY FOR LAYER   1
 READING ON UNIT   13 WITH FORMAT: (FREE)              

          1     2     3     4     5     6     7     8     9    10    11    12    13    14    15    16    17    18    19    20
         21    22    23    24    25    26    27    28    29    30    31    32    33    34    35    36    37    38    39    40
         41    42    43    44    45    46    47    48    49    50    51    52    53    54    55    56
 ............................................................................................................................
   1      0     0     0     0     0     0     0     0     0     0     0     0     0     0     0     0     0     0     0     0
          0     0     0     0     1     1     0     0     0     0     0     0     0     0     0     0     0     0     0     0
          0     0     0     0     0     0     0     0     0     0     0     0     0     0     0     0
   2      0     0     0     0     0     0     0     0     0     0     0     0     0     0     0     0     0     0     0     0
          0     0     0     0     1     1     1     0     0     0     0     0     0     0     0     0     0     0     0     0
          0     0     0     0     0     0     0     0     0     0     0     0     0     0     0     0
   3      0     0     0     0     0     0     0     0     0     0     0     0     0     0     0     0     0     0     0     0
          0     0     0     0     1     1     1     1     0     0     0     0     0     0     0     0     0     0     0     0
          0     0     0     0     0     0     0     0     0     0     0     0     0     0     0     0
   4      0     0     0     0     0     0     0     0     0     0     0     0     0     0     0     0     0     0     0     0
          0     0     0     0     0     1     1     1     1     1     0     0     0     0     0     0     0     0     0     0
          0     0     0     0     0     0     0     0     0     0     0     0     0     0     0     0
   5      0     0     0     0     0     0     0     0     0     0     0     0     0     0     0     0     0     0     0     0
          0     0     0     0     0     1     1     1     1     1     1     1     0     0     0     0     1     1     0     0
          0     0     0     0     0     0     0     0     0     0     0     0     0     0     0     0
   6      0     0     0     0     0     0     0     0     0     0     0     0     0     0     0     0     0     0     0     0
          0     0     0     0     0     0     1     1     1     1     1     1     1     1     1     1     1     1     1     1
          1     1     1     1     1     0     0     0     0     0     0     0     0     0     0     0
   7      0     0     0     0     0     0     0     0     0     0     0     0     0     0     0     0     0     0     0     0
          0     0     0     0     0     0     0     1     1     1     1     1     1     1     1     1     1     1     1     1
          1     1     1     1     1     0     0     0     0     0     0     0     0     0     0     0
   8      0     0     0     0     0     0     0     0     0     0     0     0     0     0     0     0     0     0     0     0
          0     0     0     0     0     0     0     1     1     1     1     1     1     1     1     1     1     1     1     1
          1     1     1     1     1     1     1     1     1     1     0     0     0     0     0     0
   9      0     0     0     0     0     0     0     0     0     0     0     0     0     0     0     0     0     0     0     0
          0     0     1     1     1     1     1     1     1     1     1     1     1     1     1     1     1     1     1     1
          1     1     1     1     1     1     1     1     1     1     1     0     0     0     0     0
  10      0     0     0     0     0     0     0     0     0     0     0     0     0     0     0     0     0     0     0     0
          0     0     1     1     1     1     1     1     1     1     1     1     1     1     1     1     1     1     1     1
          1     1     1     1     1     1     1     1     1     1     1     0     0     0     0     0
  11      0     0     0     0     0     0     0     0     0     0     0     0     0     0     0     0     0     0     0     0
          0     1     1     1     1     1     1     1     1     1     1     1     1     1     1     1     1     1     1     1
          1     1     1     1     1     1     1     1     0     0     0     0     0     0     0     0
  12      0     0     0     0     0     0     0     0     0     0     0     0     0     0     0     0     0     0     0     0
          0     1     1     1     1     1     1     1     1     1     1     1     1     1     1     1     1     1     1     0
          0     0     0     0     0     0     0     0     0     0     0     0     0     0     0     0
  13      0     0     0     0     0     0     0     0     0     0     0     0     0     0     0     0     0     0     0     0
          1     1     1     1     1     1     1     1     1     1     1     1     1     1     1     1     1     1     1     0
          0     0     0     0     0     0     0     0     0     0     0     0     0     0     0     0
  14      0     0     0     0     0     0     0     0     0     0     0     0     0     0     0     0     0     0     1     1
          1     1     1     1     1     1     1     1     1     1     1     1     1     1     1     1     1     1     1     0
          0     0     0     0     0     0     0     0     0     0     0     0     0     0     0     0
  15      0     0     0     0     0     0     0     0     0     0     0     0     1     0     0     0     0     1     1     1
          1     1     1     1     1     1     1     1     1     1     1     1     1     1     1     1     1     1     0     0
          0     0     0     0     0     0     0     0     0     0     0     0     0     0     0     0
  16      0     0     0     0     0     1     1     1     0     0     1     1     1     1     1     1     1     1     1     1
          1     1     1     1     1     1     1     1     1     1     1     1     1     1     1     1     1     0     0     0
          0     0     0     0     0     0     0     0     0     0     0     0     0     0     0     0
  17      0     0     1     1     1     1     1     1     1     1     1     1     1     1     1     1     1     1     1     1
          1     1     1     1     1     1     1     1     1     1     1     1     1     1     1     1     0     0     0     0
          0     0     0     0     0     0     0     0     0     0     0     0     0     0     0     0
  18      1     1     1     1     1     1     1     1     1     1     1     1     1     1     1     1     1     1     1     1
          1     1     1     1     1     1     1     1     1     1     1     1     1     1     1     1     0     0     0     0
          0     0     0     0     0     0     0     0     0     0     0     0     0     0     0     0
  19      0     1     1     1     1     1     1     1     1     1     1     1     1     1     1     1     1     1     1     1
          1     1     1     1     1     1     1     1     1     1     1     1     1     1     1     1     1     0     0     0
          0     0     0     0     0     0     0     0     0     0     0     0     0     0     0     0
  20      0     0     0     1     1     1     1     1     1     1     1     1     1     1     1     1     1     1     1     1
          1     1     1     1     1     1     1     1     1     1     1     1     1     1     1     1     1     1     0     0
          0     0     0     0     0     0     0     0     0     0     0     0     0     0     0     0
  21      0     0     0     0     0     1     1     1     1     1     1     1     1     1     1     1     1     1     1     1
          1     1     1     1     1     1     1     1     1     1     1     1     1     1     1     1     1     1     0     0
          0     0     0     0     0     0     0     0     0     0     0     0     0     0     0     0
  22      0     0     0     0     0     0     0     0     0     1     1     1     1     1     1     1     1     1     1     1
          1     1     1     1     1     1     1     1     1     1     1     1     1     1     1     1     1     1     0     0
          0     0     0     0     0     0     0     0     0     0     0     0     0     0     0     0
  23      0     0     0     0     0     0     0     0     0     0     1     1     1     1     1     1     1     1     1     1
          1     1     1     1     1     1     1     1     1     1     1     1     1     1     1     1     1     0     0     0
          0     0     0     0     0     0     0     0     0     0     0     0     0     0     0     0
  24      0     0     0     0     0     0     0     0     0     0     0     1     1     1     1     1     1     1     1     1
          1     1     1     1     1     1     1     1     1     1     1     1     1     1     1     1     1     0     0     0
          0     0     0     0     0     0     1     1     1     1     1     1     0     0     0     0
  25      0     0     0     0     0     0     0     0     0     0     0     0     1     1     1     1     1     1     1     1
          1     1     1     1     1     1     1     1     1     1     1     1     1     1     1     1     1     1     1     1
          1     1     1     1     1     1     1     1     1     1     1     1     1     0     0     0
  26      0     0     0     0     0     0     0     0     0     0     0     0     0     1     1     1     1     1     1     1
          1     1     1     1     1     1     1     1     1     1     1     1     1     1     1     1     1     1     1     1
          1     1     1     1     1     1     1     1     1     1     1     1     1     0     0     0
  27      0     0     0     0     0     0     0     0     0     0     0     0     0     0     0     0     1     1     1     1
          1     1     1     1     1     1     1     1     1     1     1     1     1     1     1     1     1     1     1     1
          1     1     1     1     1     1     1     1     1     1     1     1     1     1     0     0
  28      0     0     0     0     0     0     0     0     0     0     0     0     0     0     0     0     0     0     1     1
          1     1     1     1     1     1     1     1     1     1     1     1     1     1     1     1     1     1     1     1
          1     1     1     1     1     1     1     1     1     1     1     1     1     1     1     0
  29      0     0     0     0     0     0     0     0     0     0     0     0     0     0     0     0     0     0     0     1
          1     1     1     1     1     1     1     1     1     1     1     1     1     1     1     1     1     1     1     1
          1     1     1     1     1     1     1     1     1     1     1     1     1     1     1     1
  30      0     0     0     0     0     0     0     0     0     0     0     0     0     0     0     0     0     0     0     1
          1     1     1     1     1     1     1     1     1     1     1     1     1     1     1     1     1     1     1     1
          1     1     1     1     1     1     1     1     1     1     1     1     1     1     1     0
  31      0     0     0     0     0     0     0     0     0     0     0     0     0     0     0     0     0     0     0     1
          1     1     1     1     1     1     1     1     1     1     1     1     1     1     1     1     1     1     1     1
          1     1     1     1     1     1     1     1     1     1     1     1     1     1     0     0
  32      0     0     0     0     0     0     0     0     0     0     0     0     0     0     0     0     0     0     0     1
          1     1     1     1     1     1     1     1     1     1     1     1     1     1     1     1     1     1     1     1
          1     1     1     1     1     1     1     1     1     1     0     0     0     0     0     0
  33      0     0     0     0     0     0     0     0     0     0     0     0     0     0     0     0     0     0     0     0
          1     1     1     1     1     1     1     1     1     1     1     1     1     1     1     1     1     1     1     1
          1     1     1     1     1     1     1     1     1     1     0     0     0     0     0     0
  34      0     0     0     0     0     0     0     0     0     0     0     0     0     0     0     0     0     0     0     0
          1     1     1     1     1     1     1     1     1     1     1     1     1     1     1     1     1     1     1     1
          1     1     1     1     1     1     1     1     1     1     0     0     0     0     0     0
  35      0     0     0     0     0     0     0     0     0     0     0     0     0     0     0     0     0     0     0     1
          1     1     1     1     1     1     1     1     1     1     1     1     1     1     1     1     1     1     1     1
          1     1     1     1     1     1     1     1     1     1     0     0     0     0     0     0
  36      0     0     0     0     0     0     0     0     0     0     0     0     0     0     0     0     0     0     0     1
          1     1     1     1     1     1     1     1     1     1     1     1     1     1     1     1     1     1     1     1
          1     1     1     1     1     1     1     1     1     1     1     0     0     0     0     0
  37      0     0     0     0     0     0     0     0     0     0     0     0     0     0     0     0     0     0     0     1
          1     1     1     1     1     1     1     1     1     1     1     1     1     1     1     1     1     1     1     1
          1     1     1     1     1     1     1     1     1     1     1     0     0     0     0     0
  38      0     0     0     0     0     0     0     0     0     0     0     0     0     0     0     0     0     0     0     1
          1     1     1     1     1     1     1     1     1     1     1     1     1     1     1     1     1     1     1     1
          1     1     1     1     1     1     1     1     0     0     0     0     0     0     0     0
  39      0     0     0     0     0     0     0     0     0     0     0     0     0     0     0     0     0     0     0     1
          1     1     1     1     1     1     1     1     1     1     1     1     1     1     1     1     1     1     1     1
          1     1     1     1     1     1     1     1     0     0     0     0     0     0     0     0
  40      0     0     0     0     0     0     0     0     0     0     0     0     0     0     0     0     0     0     0     1
          1     1     1     1     1     1     1     1     1     1     1     1     1     1     1     1     1     1     1     1
          1     1     1     1     1     1     1     0     0     0     0     0     0     0     0     0
  41      0     0     0     0     0     0     0     0     0     0     0     0     0     0     0     0     0     0     1     1
          1     1     1     1     1     1     1     1     1     1     1     1     1     1     1     1     1     1     1     1
          1     1     1     1     1     1     0     0     0     0     0     0     0     0     0     0
  42      0     0     0     0     0     0     0     0     0     0     0     0     0     0     0     0     0     0     1     1
          1     1     1     1     1     1     1     1     1     1     1     1     1     1     1     1     1     1     1     1
          1     1     1     1     1     0     0     0     0     0     0     0     0     0     0     0
  43      0     0     0     0     0     0     0     0     0     0     0     0     0     0     0     0     1     1     1     1
          1     1     1     1     1     1     1     1     0     0     0     0     0     0     1     1     1     1     1     1
          1     1     1     1     0     0     0     0     0     0     0     0     0     0     0     0
  44      0     0     0     0     0     0     0     0     0     0     0     0     0     0     0     0     1     1     1     1
          1     1     1     1     1     1     0     0     0     0     0     0     0     0     0     1     1     1     1     1
          1     0     0     0     0     0     0     0     0     0     0     0     0     0     0     0
  45      0     0     0     0     0     0     0     0     0     0     0     0     0     0     0     0     0     1     1     0
          0     0     0     0     0     0     0     0     0     0     0     0     0     0     0     1     1     0     0     0
          0     0     0     0     0     0     0     0     0     0     0     0     0     0     0     0

 AQUIFER HEAD WILL BE SET TO -1.00000E+20 AT ALL NO-FLOW NODES (IBOUND=0).

             INITIAL HEAD =   0.00000     FOR LAYER   1
 # Output Control file created on 2017-05-30 by ModelMuse version 3.9.0.0.

 OUTPUT CONTROL IS SPECIFIED ONLY AT TIME STEPS FOR WHICH OUTPUT IS DESIRED
 HEADS WILL BE SAVED WITH FORMAT: (10(1X1PE13.5))     
 SAVED HEADS WILL BE LABELED
 DRAWDOWN WILL BE SAVED WITH FORMAT: (10(1X1PE13.5))     
 SAVED DRAWDOWN WILL BE LABELED
 COMPACT CELL-BY-CELL BUDGET FILES WILL BE WRITTEN
 AUXILIARY DATA WILL BE SAVED IN CELL-BY-CELL BUDGET FILES
 HEAD PRINT FORMAT CODE IS   0    DRAWDOWN PRINT FORMAT CODE IS   0
 HEADS WILL BE SAVED ON UNIT   37    DRAWDOWNS WILL BE SAVED ON UNIT   38

 LPF -- LAYER-PROPERTY FLOW PACKAGE, VERSION 7, 5/2/2005
         INPUT READ FROM UNIT   14
 # LPF: Layer Property Flow package file created on 2017-05-30 by ModelMuse version 3.9.0.0.
 CELL-BY-CELL FLOWS WILL BE SAVED ON UNIT    9
 HEAD AT CELLS THAT CONVERT TO DRY= -2.00000E+20
 No named parameters

   LAYER FLAGS:
 LAYER       LAYTYP        LAYAVG         CHANI        LAYVKA        LAYWET
 ---------------------------------------------------------------------------
    1             0             0    -1.000E+00             0             0

   INTERPRETATION OF LAYER FLAGS:
                        INTERBLOCK     HORIZONTAL    DATA IN
         LAYER TYPE   TRANSMISSIVITY   ANISOTROPY   ARRAY VKA   WETTABILITY
 LAYER      (LAYTYP)      (LAYAVG)       (CHANI)      (LAYVKA)      (LAYWET)
 ---------------------------------------------------------------------------
    1      CONFINED      HARMONIC      VARIABLE    VERTICAL K  NON-WETTABLE

 WETTING CAPABILITY IS NOT ACTIVE IN ANY LAYER

    HYD. COND. ALONG ROWS =  6.850000E-02 FOR LAYER   1

   HORIZ. ANI. (COL./ROW) =   1.00000     FOR LAYER   1

      VERTICAL HYD. COND. =  6.850000E-03 FOR LAYER   1

         SPECIFIC STORAGE =  1.000000E-04 FOR LAYER   1

 WEL -- WELL PACKAGE, VERSION 7, 5/2/2005 INPUT READ FROM UNIT   20
 # WEL: Well package file created on 2017-05-30 by ModelMuse version 3.9.0.0.
 No named parameters
 MAXIMUM OF      1 ACTIVE WELLS AT ONE TIME
 CELL-BY-CELL FLOWS WILL BE SAVED ON UNIT    9
 AUXILIARY WELL VARIABLE: IFACE           


     0 Well parameters

 RIV -- RIVER PACKAGE, VERSION 7, 5/2/2005 INPUT READ FROM UNIT   21
 # RIV: River package file created on 2017-05-30 by ModelMuse version 3.9.0.0.
 No named parameters
 MAXIMUM OF     67 ACTIVE RIVER REACHES AT ONE TIME
 CELL-BY-CELL FLOWS WILL BE SAVED ON UNIT    9
 AUXILIARY RIVER VARIABLE: IFACE           


     0 River parameters

 PCG -- CONJUGATE-GRADIENT SOLUTION PACKAGE, VERSION 7, 5/2/2005
 # PCG: Preconditioned Conjugate Gradient package file created on 2017-05-30 by ModelMuse version 3.9.0.0.
 MAXIMUM OF     20 CALLS OF SOLUTION ROUTINE
 MAXIMUM OF     30 INTERNAL ITERATIONS PER CALL TO SOLUTION ROUTINE
 MATRIX PRECONDITIONING TYPE :    1



                                    SOLUTION BY THE CONJUGATE-GRADIENT METHOD
                                   -------------------------------------------
                    MAXIMUM NUMBER OF CALLS TO PCG ROUTINE =       20
                        MAXIMUM ITERATIONS PER CALL TO PCG =       30
                               MATRIX PRECONDITIONING TYPE =        1
        RELAXATION FACTOR (ONLY USED WITH PRECOND. TYPE 1) =    0.10000E+01
 PARAMETER OF POLYNOMIAL PRECOND. = 2 (2) OR IS CALCULATED :        1
                         HEAD CHANGE CRITERION FOR CLOSURE =    0.10000E-02
                     RESIDUAL CHANGE CRITERION FOR CLOSURE =    0.10000E+04
            PCG HEAD AND RESIDUAL CHANGE PRINTOUT INTERVAL =        1
     PRINTING FROM SOLVER IS LIMITED(1) OR SUPPRESSED (>1) =        0
                            STEADY-STATE DAMPING PARAMETER =    0.10000E+01
                               TRANSIENT DAMPING PARAMETER =    0.10000E+01

 OBS2BAS7 -- HEAD OBSERVATIONS, VERSION 2.0, 2/28/2006
 INPUT READ FROM UNIT  41
 # HOB: Head Observation package file created on 2017-05-30 by ModelMuse version 3.9.0.0.

 NUMBER OF HEADS....................................:   27
   NUMBER OF MULTILAYER HEADS.......................:    0
   MAXIMUM NUMBER OF LAYERS FOR MULTILAYER HEADS....:    2
 HEAD OBSERVATIONS WILL BE SAVED ON UNIT............:   42
 SIMULATED EQUIVALENT HEAD AT DRY CELLS WILL BE:  -1.000000E+06

 OBSERVED HEAD DATA -- TIME OFFSETS ARE MULTIPLIED BY:   1.0000    

                    REFER.
       OBSERVATION  STRESS    TIME
  OBS#    NAME      PERIOD   OFFSET    OBSERVATION
     1 ObsWell1_       -9    60.00      0.1700    
  TRANSIENT DATA AT THIS LOCATION, ITT =   1
     1 ObsWell1__1      1    60.00      0.1700    
     2 ObsWell1__2      1    240.0      0.2600    
     3 ObsWell1__3      1    600.0      0.3300    
     4 ObsWell1__4      1    2400.      0.4800    
     5 ObsWell1__5      1    6000.      0.5700    
     6 ObsWell1__6      1   0.2400E+05  0.7900    
     7 ObsWell1__7      1   0.6000E+05  0.9900    
     8 ObsWell1__8      1   0.1200E+06   1.190    
     9 ObsWell1__9      1   0.1800E+06   1.330    
 
    10 ObsWell2_       -9    60.00      0.4000E-01
  TRANSIENT DATA AT THIS LOCATION, ITT =   1
    10 ObsWell2__1      1    60.00      0.4000E-01
    11 ObsWell2__2      1    240.0      0.1200    
    12 ObsWell2__3      1    600.0      0.1600    
    13 ObsWell2__4      1    2400.      0.2200    
    14 ObsWell2__5      1    6000.      0.2900    
    15 ObsWell2__6      1   0.2400E+05  0.5100    
    16 ObsWell2__7      1   0.6000E+05  0.7000    
    17 ObsWell2__8      1   0.1200E+06  0.8600    
    18 ObsWell2__9      1   0.1800E+06  0.9800    
 
    19 ObsWell3_       -9    60.00       0.000    
  TRANSIENT DATA AT THIS LOCATION, ITT =   1
    19 ObsWell3__1      1    60.00       0.000    
    20 ObsWell3__2      1    240.0      0.1000E-01
    21 ObsWell3__3      1    600.0      0.2000E-01
    22 ObsWell3__4      1    2400.      0.8000E-01
    23 ObsWell3__5      1    6000.      0.1400    
    24 ObsWell3__6      1   0.2400E+05  0.3000    
    25 ObsWell3__7      1   0.6000E+05  0.5000    
    26 ObsWell3__8      1   0.1200E+06  0.6800    
    27 ObsWell3__9      1   0.1800E+06  0.7800    
 

                                                     HEAD CHANGE
                                                      REFERENCE
        OBSERVATION                   ROW     COL    OBSERVATION
  OBS#     NAME       LAY  ROW  COL  OFFSET  OFFSET   (IF > 0)
     1  ObsWell1__1     1   28   33   0.414  -0.336        0
     2  ObsWell1__2     1   28   33   0.414  -0.336        0
     3  ObsWell1__3     1   28   33   0.414  -0.336        0
     4  ObsWell1__4     1   28   33   0.414  -0.336        0
     5  ObsWell1__5     1   28   33   0.414  -0.336        0
     6  ObsWell1__6     1   28   33   0.414  -0.336        0
     7  ObsWell1__7     1   28   33   0.414  -0.336        0
     8  ObsWell1__8     1   28   33   0.414  -0.336        0
     9  ObsWell1__9     1   28   33   0.414  -0.336        0
    10  ObsWell2__1     1   32   33  -0.477  -0.218        0
    11  ObsWell2__2     1   32   33  -0.477  -0.218        0
    12  ObsWell2__3     1   32   33  -0.477  -0.218        0
    13  ObsWell2__4     1   32   33  -0.477  -0.218        0
    14  ObsWell2__5     1   32   33  -0.477  -0.218        0
    15  ObsWell2__6     1   32   33  -0.477  -0.218        0
    16  ObsWell2__7     1   32   33  -0.477  -0.218        0
    17  ObsWell2__8     1   32   33  -0.477  -0.218        0
    18  ObsWell2__9     1   32   33  -0.477  -0.218        0
    19  ObsWell3__1     1   29   36   0.437  -0.241        0
    20  ObsWell3__2     1   29   36   0.437  -0.241        0
    21  ObsWell3__3     1   29   36   0.437  -0.241        0
    22  ObsWell3__4     1   29   36   0.437  -0.241        0
    23  ObsWell3__5     1   29   36   0.437  -0.241        0
    24  ObsWell3__6     1   29   36   0.437  -0.241        0
    25  ObsWell3__7     1   29   36   0.437  -0.241        0
    26  ObsWell3__8     1   29   36   0.437  -0.241        0
    27  ObsWell3__9     1   29   36   0.437  -0.241        0
1
                            STRESS PERIOD NO.    1, LENGTH =   180000.0    
                            -----------------------------------------------

                              NUMBER OF TIME STEPS =    16

                               MULTIPLIER FOR DELT =     1.414

                            INITIAL TIME STEP SIZE =   292.9450    

 WELL NO.  LAYER   ROW   COL   STRESS RATE         IFACE           
 ------------------------------------------------------------------
      1      1     30     33      0.9630           0.000    

      1 WELL 

 REACH NO.  LAYER   ROW   COL     STAGE      CONDUCTANCE     BOTTOM EL.         IFACE           
 -----------------------------------------------------------------------------------------------
      1      1     18      1       0.000          0.2000E-01      -10.00           0.000    
      2      1     19      1       0.000          0.2000E-01      -10.00           0.000    
      3      1     19      2       0.000          0.2000E-01      -10.00           0.000    
      4      1     19      3       0.000          0.2000E-01      -10.00           0.000    
      5      1     19      4       0.000          0.2000E-01      -10.00           0.000    
      6      1     20      4       0.000          0.2000E-01      -10.00           0.000    
      7      1     20      5       0.000          0.2000E-01      -10.00           0.000    
      8      1     20      6       0.000          0.2000E-01      -10.00           0.000    
      9      1     21      6       0.000          0.2000E-01      -10.00           0.000    
     10      1     21      7       0.000          0.2000E-01      -10.00           0.000    
     11      1     21      8       0.000          0.2000E-01      -10.00           0.000    
     12      1     21      9       0.000          0.2000E-01      -10.00           0.000    
     13      1     22      9       0.000          0.2000E-01      -10.00           0.000    
     14      1     22     10       0.000          0.2000E-01      -10.00           0.000    
     15      1     22     11       0.000          0.2000E-01      -10.00           0.000    
     16      1     22     12       0.000          0.2000E-01      -10.00           0.000    
     17      1     23     12       0.000          0.2000E-01      -10.00           0.000    
     18      1     23     13       0.000          0.2000E-01      -10.00           0.000    
     19      1     23     14       0.000          0.2000E-01      -10.00           0.000    
     20      1     24     14       0.000          0.2000E-01      -10.00           0.000    
     21      1     24     15       0.000          0.2000E-01      -10.00           0.000    
     22      1     24     16       0.000          0.2000E-01      -10.00           0.000    
     23      1     24     17       0.000          0.2000E-01      -10.00           0.000    
     24      1     25     17       0.000          0.2000E-01      -10.00           0.000    
     25      1     25     18       0.000          0.2000E-01      -10.00           0.000    
     26      1     25     19       0.000          0.2000E-01      -10.00           0.000    
     27      1     25     20       0.000          0.2000E-01      -10.00           0.000    
     28      1     25     21       0.000          0.2000E-01      -10.00           0.000    
     29      1     25     22       0.000          0.2000E-01      -10.00           0.000    
     30      1     25     23       0.000          0.2000E-01      -10.00           0.000    
     31      1     26     23       0.000          0.2000E-01      -10.00           0.000    
     32      1     26     24       0.000          0.2000E-01      -10.00           0.000    
     33      1     26     25       0.000          0.2000E-01      -10.00           0.000    
     34      1     27     25       0.000          0.2000E-01      -10.00           0.000    
     35      1     27     26       0.000          0.2000E-01      -10.00           0.000    
     36      1     28     26       0.000          0.2000E-01      -10.00           0.000    
     37      1     28     27       0.000          0.2000E-01      -10.00           0.000    
     38      1     28     28       0.000          0.2000E-01      -10.00           0.000    
     39      1     28     29       0.000          0.2000E-01      -10.00           0.000    
     40      1     28     30       0.000          0.2000E-01      -10.00           0.000    
     41      1     28     31       0.000          0.2000E-01      -10.00           0.000    
     42      1     28     32       0.000          0.2000E-01      -10.00           0.000    
     43      1     28     33       0.000          0.2000E-01      -10.00           0.000    
     44      1     27     33       0.000          0.2000E-01      -10.00           0.000    
     45      1     27     34       0.000          0.2000E-01      -10.00           0.000    
     46      1     28     34       0.000          0.2000E-01      -10.00           0.000    
     47      1     28     35       0.000          0.2000E-01      -10.00           0.000    
     48      1     28     36       0.000          0.2000E-01      -10.00           0.000    
     49      1     28     37       0.000          0.2000E-01      -10.00           0.000    
     50      1     29     37       0.000          0.2000E-01      -10.00           0.000    
     51      1     29     38       0.000          0.2000E-01      -10.00           0.000    
     52      1     29     39       0.000          0.2000E-01      -10.00           0.000    
     53      1     30     39       0.000          0.2000E-01      -10.00           0.000    
     54      1     30     40       0.000          0.2000E-01      -10.00           0.000    
     55      1     30     41       0.000          0.2000E-01      -10.00           0.000    
     56      1     31     41       0.000          0.2000E-01      -10.00           0.000    
     57      1     31     42       0.000          0.2000E-01      -10.00           0.000    
     58      1     32     42       0.000          0.2000E-01      -10.00           0.000    
     59      1     32     43       0.000          0.2000E-01      -10.00           0.000    
     60      1     32     44       0.000          0.2000E-01      -10.00           0.000    
     61      1     33     44       0.000          0.2000E-01      -10.00           0.000    
     62      1     33     45       0.000          0.2000E-01      -10.00           0.000    
     63      1     33     46       0.000          0.2000E-01      -10.00           0.000    
     64      1     33     47       0.000          0.2000E-01      -10.00           0.000    
     65      1     33     48       0.000          0.2000E-01      -10.00           0.000    
     66      1     33     49       0.000          0.2000E-01      -10.00           0.000    
     67      1     33     50       0.000          0.2000E-01      -10.00           0.000    

     67 RIVER REACHES
 
 SOLVING FOR HEAD 


     2 CALLS TO PCG ROUTINE FOR TIME STEP   1 IN STRESS PERIOD    1
     7 TOTAL ITERATIONS

 MAXIMUM HEAD CHANGE FOR EACH ITERATION (1 INDICATES THE FIRST INNER ITERATION):

    HEAD CHANGE    HEAD CHANGE    HEAD CHANGE    HEAD CHANGE    HEAD CHANGE 
   LAYER,ROW,COL  LAYER,ROW,COL  LAYER,ROW,COL  LAYER,ROW,COL  LAYER,ROW,COL
 ---------------------------------------------------------------------------
  1  0.1556      0  0.2312E-01  0  0.8885E-02  0 -0.2817E-02  0  0.1756E-02
   (  1, 30, 33)  (  1, 30, 33)  (  1, 22, 38)  (  1, 45, 37)  (  1, 45, 37)
  0 -0.4348E-03  1 -0.2292E-03
   (  1, 29, 56)  (  1, 16, 37)

 MAXIMUM RESIDUAL FOR EACH ITERATION (1 INDICATES THE FIRST INNER ITERATION):

    RESIDUAL       RESIDUAL       RESIDUAL       RESIDUAL       RESIDUAL    
   LAYER,ROW,COL  LAYER,ROW,COL  LAYER,ROW,COL  LAYER,ROW,COL  LAYER,ROW,COL
 ---------------------------------------------------------------------------
  1 -0.1983      0 -0.6477E-01  0 -0.1804E-01  0 -0.3427E-02  0 -0.2224E-02
   (  1, 30, 33)  (  1, 29, 34)  (  1, 31, 32)  (  1, 28, 35)  (  1, 32, 31)
  0 -0.8459E-03  1 -0.4652E-03
   (  1, 28, 35)  (  1, 28, 35)



 OUTPUT CONTROL FOR STRESS PERIOD    1   TIME STEP    1
    SAVE HEAD FOR ALL LAYERS
    SAVE DRAWDOWN FOR ALL LAYERS
    SAVE BUDGET
    PRINT BUDGET
 UBDSV1 SAVING "         STORAGE" ON UNIT   9 AT TIME STEP  1, STRESS PERIOD   1
 UBDSV2 SAVING "   CONSTANT HEAD" ON UNIT   9 AT TIME STEP  1, STRESS PERIOD   1
 UBDSV1 SAVING "FLOW RIGHT FACE " ON UNIT   9 AT TIME STEP  1, STRESS PERIOD   1
 UBDSV1 SAVING "FLOW FRONT FACE " ON UNIT   9 AT TIME STEP  1, STRESS PERIOD   1
 UBDSV4 SAVING "           WELLS" ON UNIT   9 AT TIME STEP  1, STRESS PERIOD   1
 UBDSV4 SAVING "   RIVER LEAKAGE" ON UNIT   9 AT TIME STEP  1, STRESS PERIOD   1

 HEAD WILL BE SAVED ON UNIT   37 AT END OF TIME STEP    1, STRESS PERIOD    1

 DRAWDOWN WILL BE SAVED ON UNIT   38 AT END OF TIME STEP    1, STRESS PERIOD    1
1
  VOLUMETRIC BUDGET FOR ENTIRE MODEL AT END OF TIME STEP    1, STRESS PERIOD   1
  ------------------------------------------------------------------------------

     CUMULATIVE VOLUMES      L**3       RATES FOR THIS TIME STEP      L**3/T
     ------------------                 ------------------------

           IN:                                      IN:
           ---                                      ---
             STORAGE =           0.0000               STORAGE =           0.0000
       CONSTANT HEAD =           0.0000         CONSTANT HEAD =           0.0000
               WELLS =         282.1060                 WELLS =           0.9630
       RIVER LEAKAGE =           0.0000         RIVER LEAKAGE =           0.0000

            TOTAL IN =         282.1060              TOTAL IN =           0.9630

          OUT:                                     OUT:
          ----                                     ----
             STORAGE =         277.3247               STORAGE =           0.9467
       CONSTANT HEAD =           0.0000         CONSTANT HEAD =           0.0000
               WELLS =           0.0000                 WELLS =           0.0000
       RIVER LEAKAGE =           4.4725         RIVER LEAKAGE =       1.5267E-02

           TOTAL OUT =         281.7972             TOTAL OUT =           0.9619

            IN - OUT =           0.3088              IN - OUT =       1.0540E-03

 PERCENT DISCREPANCY =           0.11     PERCENT DISCREPANCY =           0.11






         TIME SUMMARY AT END OF TIME STEP    1 IN STRESS PERIOD    1
                    SECONDS     MINUTES      HOURS       DAYS        YEARS
                    -----------------------------------------------------------
   TIME STEP LENGTH  292.94      4.8824     8.13736E-02 3.39057E-03 9.28287E-06
 STRESS PERIOD TIME  292.94      4.8824     8.13736E-02 3.39057E-03 9.28287E-06
         TOTAL TIME  292.94      4.8824     8.13736E-02 3.39057E-03 9.28287E-06
1
 
 SOLVING FOR HEAD 
     2 CALLS TO PCG ROUTINE FOR TIME STEP   2 IN STRESS PERIOD    1
     6 TOTAL ITERATIONS

 MAXIMUM HEAD CHANGE FOR EACH ITERATION (1 INDICATES THE FIRST INNER ITERATION):

    HEAD CHANGE    HEAD CHANGE    HEAD CHANGE    HEAD CHANGE    HEAD CHANGE 
   LAYER,ROW,COL  LAYER,ROW,COL  LAYER,ROW,COL  LAYER,ROW,COL  LAYER,ROW,COL
 ---------------------------------------------------------------------------
  1  0.4242E-01  0  0.1196E-01  0  0.3341E-02  0  0.1998E-02  0  0.7798E-03
   (  1, 30, 33)  (  1, 22, 38)  (  1, 22, 38)  (  1, 45, 19)  (  1, 44, 20)
  1  0.4172E-03
   (  1, 45, 19)

 MAXIMUM RESIDUAL FOR EACH ITERATION (1 INDICATES THE FIRST INNER ITERATION):

    RESIDUAL       RESIDUAL       RESIDUAL       RESIDUAL       RESIDUAL    
   LAYER,ROW,COL  LAYER,ROW,COL  LAYER,ROW,COL  LAYER,ROW,COL  LAYER,ROW,COL
 ---------------------------------------------------------------------------
  1  0.7954E-02  0  0.2009E-02  0 -0.8172E-03  0  0.6541E-03  0 -0.2747E-03
   (  1, 30, 33)  (  1, 25, 33)  (  1, 15, 38)  (  1, 15, 38)  (  1, 43, 27)
  1 -0.2155E-03
   (  1, 44, 20)



 OUTPUT CONTROL FOR STRESS PERIOD    1   TIME STEP    2
    SAVE HEAD FOR ALL LAYERS
    SAVE DRAWDOWN FOR ALL LAYERS
    SAVE BUDGET
    PRINT BUDGET
 UBDSV1 SAVING "         STORAGE" ON UNIT   9 AT TIME STEP  2, STRESS PERIOD   1
 UBDSV2 SAVING "   CONSTANT HEAD" ON UNIT   9 AT TIME STEP  2, STRESS PERIOD   1
 UBDSV1 SAVING "FLOW RIGHT FACE " ON UNIT   9 AT TIME STEP  2, STRESS PERIOD   1
 UBDSV1 SAVING "FLOW FRONT FACE " ON UNIT   9 AT TIME STEP  2, STRESS PERIOD   1
 UBDSV4 SAVING "           WELLS" ON UNIT   9 AT TIME STEP  2, STRESS PERIOD   1
 UBDSV4 SAVING "   RIVER LEAKAGE" ON UNIT   9 AT TIME STEP  2, STRESS PERIOD   1

 HEAD WILL BE SAVED ON UNIT   37 AT END OF TIME STEP    2, STRESS PERIOD    1

 DRAWDOWN WILL BE SAVED ON UNIT   38 AT END OF TIME STEP    2, STRESS PERIOD    1
1
  VOLUMETRIC BUDGET FOR ENTIRE MODEL AT END OF TIME STEP    2, STRESS PERIOD   1
  ------------------------------------------------------------------------------

     CUMULATIVE VOLUMES      L**3       RATES FOR THIS TIME STEP      L**3/T
     ------------------                 ------------------------

           IN:                                      IN:
           ---                                      ---
             STORAGE =           0.0000               STORAGE =           0.0000
       CONSTANT HEAD =           0.0000         CONSTANT HEAD =           0.0000
               WELLS =         681.0039                 WELLS =           0.9630
       RIVER LEAKAGE =           0.0000         RIVER LEAKAGE =           0.0000

            TOTAL IN =         681.0039              TOTAL IN =           0.9630

          OUT:                                     OUT:
          ----                                     ----
             STORAGE =         661.7985               STORAGE =           0.9282
       CONSTANT HEAD =           0.0000         CONSTANT HEAD =           0.0000
               WELLS =           0.0000                 WELLS =           0.0000
       RIVER LEAKAGE =          18.5106         RIVER LEAKAGE =       3.3890E-02

           TOTAL OUT =         680.3091             TOTAL OUT =           0.9621

            IN - OUT =           0.6948              IN - OUT =       9.3204E-04

 PERCENT DISCREPANCY =           0.10     PERCENT DISCREPANCY =           0.10






         TIME SUMMARY AT END OF TIME STEP    2 IN STRESS PERIOD    1
                    SECONDS     MINUTES      HOURS       DAYS        YEARS
                    -----------------------------------------------------------
   TIME STEP LENGTH  414.22      6.9037     0.11506     4.79426E-03 1.31260E-05
 STRESS PERIOD TIME  707.17      11.786     0.19644     8.18483E-03 2.24088E-05
         TOTAL TIME  707.17      11.786     0.19644     8.18483E-03 2.24088E-05
1
 
 SOLVING FOR HEAD 
     2 CALLS TO PCG ROUTINE FOR TIME STEP   3 IN STRESS PERIOD    1
     6 TOTAL ITERATIONS

 MAXIMUM HEAD CHANGE FOR EACH ITERATION (1 INDICATES THE FIRST INNER ITERATION):

    HEAD CHANGE    HEAD CHANGE    HEAD CHANGE    HEAD CHANGE    HEAD CHANGE 
   LAYER,ROW,COL  LAYER,ROW,COL  LAYER,ROW,COL  LAYER,ROW,COL  LAYER,ROW,COL
 ---------------------------------------------------------------------------
  1  0.3341E-01  0  0.9740E-02  0 -0.4048E-02  0  0.2482E-02  0  0.5791E-03
   (  1, 29, 33)  (  1, 22, 38)  (  1, 45, 19)  (  1, 45, 19)  (  1, 15, 38)
  1  0.3421E-03
   (  1, 12, 39)

 MAXIMUM RESIDUAL FOR EACH ITERATION (1 INDICATES THE FIRST INNER ITERATION):

    RESIDUAL       RESIDUAL       RESIDUAL       RESIDUAL       RESIDUAL    
   LAYER,ROW,COL  LAYER,ROW,COL  LAYER,ROW,COL  LAYER,ROW,COL  LAYER,ROW,COL
 ---------------------------------------------------------------------------
  1 -0.3303E-02  0 -0.4952E-02  0 -0.1522E-02  0  0.5679E-03  0 -0.2561E-03
   (  1, 22, 38)  (  1, 44, 20)  (  1, 23, 37)  (  1, 25, 37)  (  1, 43, 27)
  1 -0.1579E-03
   (  1, 15, 38)



 OUTPUT CONTROL FOR STRESS PERIOD    1   TIME STEP    3
    SAVE HEAD FOR ALL LAYERS
    SAVE DRAWDOWN FOR ALL LAYERS
    SAVE BUDGET
    PRINT BUDGET
 UBDSV1 SAVING "         STORAGE" ON UNIT   9 AT TIME STEP  3, STRESS PERIOD   1
 UBDSV2 SAVING "   CONSTANT HEAD" ON UNIT   9 AT TIME STEP  3, STRESS PERIOD   1
 UBDSV1 SAVING "FLOW RIGHT FACE " ON UNIT   9 AT TIME STEP  3, STRESS PERIOD   1
 UBDSV1 SAVING "FLOW FRONT FACE " ON UNIT   9 AT TIME STEP  3, STRESS PERIOD   1
 UBDSV4 SAVING "           WELLS" ON UNIT   9 AT TIME STEP  3, STRESS PERIOD   1
 UBDSV4 SAVING "   RIVER LEAKAGE" ON UNIT   9 AT TIME STEP  3, STRESS PERIOD   1

 HEAD WILL BE SAVED ON UNIT   37 AT END OF TIME STEP    3, STRESS PERIOD    1

 DRAWDOWN WILL BE SAVED ON UNIT   38 AT END OF TIME STEP    3, STRESS PERIOD    1
1
  VOLUMETRIC BUDGET FOR ENTIRE MODEL AT END OF TIME STEP    3, STRESS PERIOD   1
  ------------------------------------------------------------------------------

     CUMULATIVE VOLUMES      L**3       RATES FOR THIS TIME STEP      L**3/T
     ------------------                 ------------------------

           IN:                                      IN:
           ---                                      ---
             STORAGE =           0.0000               STORAGE =           0.0000
       CONSTANT HEAD =           0.0000         CONSTANT HEAD =           0.0000
               WELLS =        1245.0457                 WELLS =           0.9630
       RIVER LEAKAGE =           0.0000         RIVER LEAKAGE =           0.0000

            TOTAL IN =        1245.0457              TOTAL IN =           0.9630

          OUT:                                     OUT:
          ----                                     ----
             STORAGE =        1191.5721               STORAGE =           0.9045
       CONSTANT HEAD =           0.0000         CONSTANT HEAD =           0.0000
               WELLS =           0.0000                 WELLS =           0.0000
       RIVER LEAKAGE =          52.4240         RIVER LEAKAGE =       5.7901E-02

           TOTAL OUT =        1243.9962             TOTAL OUT =           0.9624

            IN - OUT =           1.0494              IN - OUT =       6.0546E-04

 PERCENT DISCREPANCY =           0.08     PERCENT DISCREPANCY =           0.06






         TIME SUMMARY AT END OF TIME STEP    3 IN STRESS PERIOD    1
                    SECONDS     MINUTES      HOURS       DAYS        YEARS
                    -----------------------------------------------------------
   TIME STEP LENGTH  585.71      9.7619     0.16270     6.77909E-03 1.85601E-05
 STRESS PERIOD TIME  1292.9      21.548     0.35913     1.49639E-02 4.09690E-05
         TOTAL TIME  1292.9      21.548     0.35913     1.49639E-02 4.09690E-05
1
 
 SOLVING FOR HEAD 
     2 CALLS TO PCG ROUTINE FOR TIME STEP   4 IN STRESS PERIOD    1
     6 TOTAL ITERATIONS

 MAXIMUM HEAD CHANGE FOR EACH ITERATION (1 INDICATES THE FIRST INNER ITERATION):

    HEAD CHANGE    HEAD CHANGE    HEAD CHANGE    HEAD CHANGE    HEAD CHANGE 
   LAYER,ROW,COL  LAYER,ROW,COL  LAYER,ROW,COL  LAYER,ROW,COL  LAYER,ROW,COL
 ---------------------------------------------------------------------------
  1  0.3544E-01  0  0.8129E-02  0 -0.3425E-02  0  0.1717E-02  0  0.7726E-03
   (  1, 31, 34)  (  1, 45, 19)  (  1, 45, 19)  (  1, 45, 19)  (  1, 10, 49)
  1  0.6008E-03
   (  1, 15, 38)

 MAXIMUM RESIDUAL FOR EACH ITERATION (1 INDICATES THE FIRST INNER ITERATION):

    RESIDUAL       RESIDUAL       RESIDUAL       RESIDUAL       RESIDUAL    
   LAYER,ROW,COL  LAYER,ROW,COL  LAYER,ROW,COL  LAYER,ROW,COL  LAYER,ROW,COL
 ---------------------------------------------------------------------------
  1 -0.2711E-02  0 -0.3865E-02  0 -0.1422E-02  0 -0.5579E-03  0 -0.3931E-03
   (  1, 22, 38)  (  1, 44, 20)  (  1, 23, 37)  (  1, 16, 37)  (  1, 15, 38)
  1 -0.2232E-03
   (  1, 16, 37)



 OUTPUT CONTROL FOR STRESS PERIOD    1   TIME STEP    4
    SAVE HEAD FOR ALL LAYERS
    SAVE DRAWDOWN FOR ALL LAYERS
    SAVE BUDGET
    PRINT BUDGET
 UBDSV1 SAVING "         STORAGE" ON UNIT   9 AT TIME STEP  4, STRESS PERIOD   1
 UBDSV2 SAVING "   CONSTANT HEAD" ON UNIT   9 AT TIME STEP  4, STRESS PERIOD   1
 UBDSV1 SAVING "FLOW RIGHT FACE " ON UNIT   9 AT TIME STEP  4, STRESS PERIOD   1
 UBDSV1 SAVING "FLOW FRONT FACE " ON UNIT   9 AT TIME STEP  4, STRESS PERIOD   1
 UBDSV4 SAVING "           WELLS" ON UNIT   9 AT TIME STEP  4, STRESS PERIOD   1
 UBDSV4 SAVING "   RIVER LEAKAGE" ON UNIT   9 AT TIME STEP  4, STRESS PERIOD   1

 HEAD WILL BE SAVED ON UNIT   37 AT END OF TIME STEP    4, STRESS PERIOD    1

 DRAWDOWN WILL BE SAVED ON UNIT   38 AT END OF TIME STEP    4, STRESS PERIOD    1
1
  VOLUMETRIC BUDGET FOR ENTIRE MODEL AT END OF TIME STEP    4, STRESS PERIOD   1
  ------------------------------------------------------------------------------

     CUMULATIVE VOLUMES      L**3       RATES FOR THIS TIME STEP      L**3/T
     ------------------                 ------------------------

           IN:                                      IN:
           ---                                      ---
             STORAGE =           0.0000               STORAGE =           0.0000
       CONSTANT HEAD =           0.0000         CONSTANT HEAD =           0.0000
               WELLS =        2042.6006                 WELLS =           0.9630
       RIVER LEAKAGE =           0.0000         RIVER LEAKAGE =           0.0000

            TOTAL IN =        2042.6006              TOTAL IN =           0.9630

          OUT:                                     OUT:
          ----                                     ----
             STORAGE =        1913.9785               STORAGE =           0.8723
       CONSTANT HEAD =           0.0000         CONSTANT HEAD =           0.0000
               WELLS =           0.0000                 WELLS =           0.0000
       RIVER LEAKAGE =         127.1673         RIVER LEAKAGE =       9.0248E-02

           TOTAL OUT =        2041.1459             TOTAL OUT =           0.9625

            IN - OUT =           1.4547              IN - OUT =       4.8935E-04

 PERCENT DISCREPANCY =           0.07     PERCENT DISCREPANCY =           0.05






         TIME SUMMARY AT END OF TIME STEP    4 IN STRESS PERIOD    1
                    SECONDS     MINUTES      HOURS       DAYS        YEARS
                    -----------------------------------------------------------
   TIME STEP LENGTH  828.20      13.803     0.23006     9.58563E-03 2.62440E-05
 STRESS PERIOD TIME  2121.1      35.351     0.58919     2.45495E-02 6.72130E-05
         TOTAL TIME  2121.1      35.351     0.58919     2.45495E-02 6.72130E-05
1
 
 SOLVING FOR HEAD 
     2 CALLS TO PCG ROUTINE FOR TIME STEP   5 IN STRESS PERIOD    1
     7 TOTAL ITERATIONS

 MAXIMUM HEAD CHANGE FOR EACH ITERATION (1 INDICATES THE FIRST INNER ITERATION):

    HEAD CHANGE    HEAD CHANGE    HEAD CHANGE    HEAD CHANGE    HEAD CHANGE 
   LAYER,ROW,COL  LAYER,ROW,COL  LAYER,ROW,COL  LAYER,ROW,COL  LAYER,ROW,COL
 ---------------------------------------------------------------------------
  1  0.4418E-01  0  0.8101E-02  0 -0.4667E-02  0  0.1953E-02  0  0.1353E-02
   (  1, 44, 41)  (  1, 15, 38)  (  1, 45, 19)  (  1, 45, 19)  (  1, 15, 38)
  0  0.8719E-03  1 -0.3764E-03
   (  1,  8, 49)  (  1, 29, 56)

 MAXIMUM RESIDUAL FOR EACH ITERATION (1 INDICATES THE FIRST INNER ITERATION):

    RESIDUAL       RESIDUAL       RESIDUAL       RESIDUAL       RESIDUAL    
   LAYER,ROW,COL  LAYER,ROW,COL  LAYER,ROW,COL  LAYER,ROW,COL  LAYER,ROW,COL
 ---------------------------------------------------------------------------
  1 -0.2842E-02  0 -0.3490E-02  0  0.1447E-02  0 -0.1102E-02  0  0.2613E-03
   (  1, 26, 16)  (  1, 44, 20)  (  1, 44, 20)  (  1, 15, 38)  (  1, 26, 17)
  0 -0.2035E-03  1 -0.1184E-03
   (  1, 15, 38)  (  1, 16, 37)



 OUTPUT CONTROL FOR STRESS PERIOD    1   TIME STEP    5
    SAVE HEAD FOR ALL LAYERS
    SAVE DRAWDOWN FOR ALL LAYERS
    SAVE BUDGET
    PRINT BUDGET
 UBDSV1 SAVING "         STORAGE" ON UNIT   9 AT TIME STEP  5, STRESS PERIOD   1
 UBDSV2 SAVING "   CONSTANT HEAD" ON UNIT   9 AT TIME STEP  5, STRESS PERIOD   1
 UBDSV1 SAVING "FLOW RIGHT FACE " ON UNIT   9 AT TIME STEP  5, STRESS PERIOD   1
 UBDSV1 SAVING "FLOW FRONT FACE " ON UNIT   9 AT TIME STEP  5, STRESS PERIOD   1
 UBDSV4 SAVING "           WELLS" ON UNIT   9 AT TIME STEP  5, STRESS PERIOD   1
 UBDSV4 SAVING "   RIVER LEAKAGE" ON UNIT   9 AT TIME STEP  5, STRESS PERIOD   1

 HEAD WILL BE SAVED ON UNIT   37 AT END OF TIME STEP    5, STRESS PERIOD    1

 DRAWDOWN WILL BE SAVED ON UNIT   38 AT END OF TIME STEP    5, STRESS PERIOD    1
1
  VOLUMETRIC BUDGET FOR ENTIRE MODEL AT END OF TIME STEP    5, STRESS PERIOD   1
  ------------------------------------------------------------------------------

     CUMULATIVE VOLUMES      L**3       RATES FOR THIS TIME STEP      L**3/T
     ------------------                 ------------------------

           IN:                                      IN:
           ---                                      ---
             STORAGE =           0.0000               STORAGE =           0.0000
       CONSTANT HEAD =           0.0000         CONSTANT HEAD =           0.0000
               WELLS =        3170.3433                 WELLS =           0.9630
       RIVER LEAKAGE =           0.0000         RIVER LEAKAGE =           0.0000

            TOTAL IN =        3170.3433              TOTAL IN =           0.9630

          OUT:                                     OUT:
          ----                                     ----
             STORAGE =        2884.4136               STORAGE =           0.8287
       CONSTANT HEAD =           0.0000         CONSTANT HEAD =           0.0000
               WELLS =           0.0000                 WELLS =           0.0000
       RIVER LEAKAGE =         284.1976         RIVER LEAKAGE =           0.1341

           TOTAL OUT =        3168.6111             TOTAL OUT =           0.9628

            IN - OUT =           1.7322              IN - OUT =       2.3699E-04

 PERCENT DISCREPANCY =           0.05     PERCENT DISCREPANCY =           0.02






         TIME SUMMARY AT END OF TIME STEP    5 IN STRESS PERIOD    1
                    SECONDS     MINUTES      HOURS       DAYS        YEARS
                    -----------------------------------------------------------
   TIME STEP LENGTH  1171.1      19.518     0.32530     1.35541E-02 3.71090E-05
 STRESS PERIOD TIME  3292.2      54.869     0.91449     3.81036E-02 1.04322E-04
         TOTAL TIME  3292.2      54.869     0.91449     3.81036E-02 1.04322E-04
1
 
 SOLVING FOR HEAD 
     2 CALLS TO PCG ROUTINE FOR TIME STEP   6 IN STRESS PERIOD    1
     7 TOTAL ITERATIONS

 MAXIMUM HEAD CHANGE FOR EACH ITERATION (1 INDICATES THE FIRST INNER ITERATION):

    HEAD CHANGE    HEAD CHANGE    HEAD CHANGE    HEAD CHANGE    HEAD CHANGE 
   LAYER,ROW,COL  LAYER,ROW,COL  LAYER,ROW,COL  LAYER,ROW,COL  LAYER,ROW,COL
 ---------------------------------------------------------------------------
  1  0.5860E-01  0  0.7025E-02  0 -0.6022E-02  0  0.3308E-02  0 -0.1684E-02
   (  1, 45, 18)  (  1, 37, 49)  (  1, 30, 55)  (  1, 30, 55)  (  1, 45, 19)
  0  0.9905E-03  1 -0.7499E-03
   (  1, 29, 56)  (  1, 29, 56)

 MAXIMUM RESIDUAL FOR EACH ITERATION (1 INDICATES THE FIRST INNER ITERATION):

    RESIDUAL       RESIDUAL       RESIDUAL       RESIDUAL       RESIDUAL    
   LAYER,ROW,COL  LAYER,ROW,COL  LAYER,ROW,COL  LAYER,ROW,COL  LAYER,ROW,COL
 ---------------------------------------------------------------------------
  1  0.3380E-02  0  0.2902E-02  0 -0.1979E-02  0  0.9866E-03  0  0.4946E-03
   (  1, 31, 51)  (  1, 30, 55)  (  1, 30, 55)  (  1, 45, 19)  (  1, 44, 20)
  0 -0.3265E-03  1 -0.1582E-03
   (  1, 30, 55)  (  1, 25, 19)



 OUTPUT CONTROL FOR STRESS PERIOD    1   TIME STEP    6
    SAVE HEAD FOR ALL LAYERS
    SAVE DRAWDOWN FOR ALL LAYERS
    SAVE BUDGET
    PRINT BUDGET
 UBDSV1 SAVING "         STORAGE" ON UNIT   9 AT TIME STEP  6, STRESS PERIOD   1
 UBDSV2 SAVING "   CONSTANT HEAD" ON UNIT   9 AT TIME STEP  6, STRESS PERIOD   1
 UBDSV1 SAVING "FLOW RIGHT FACE " ON UNIT   9 AT TIME STEP  6, STRESS PERIOD   1
 UBDSV1 SAVING "FLOW FRONT FACE " ON UNIT   9 AT TIME STEP  6, STRESS PERIOD   1
 UBDSV4 SAVING "           WELLS" ON UNIT   9 AT TIME STEP  6, STRESS PERIOD   1
 UBDSV4 SAVING "   RIVER LEAKAGE" ON UNIT   9 AT TIME STEP  6, STRESS PERIOD   1

 HEAD WILL BE SAVED ON UNIT   37 AT END OF TIME STEP    6, STRESS PERIOD    1

 DRAWDOWN WILL BE SAVED ON UNIT   38 AT END OF TIME STEP    6, STRESS PERIOD    1
1
  VOLUMETRIC BUDGET FOR ENTIRE MODEL AT END OF TIME STEP    6, STRESS PERIOD   1
  ------------------------------------------------------------------------------

     CUMULATIVE VOLUMES      L**3       RATES FOR THIS TIME STEP      L**3/T
     ------------------                 ------------------------

           IN:                                      IN:
           ---                                      ---
             STORAGE =           0.0000               STORAGE =           0.0000
       CONSTANT HEAD =           0.0000         CONSTANT HEAD =           0.0000
               WELLS =        4764.9717                 WELLS =           0.9630
       RIVER LEAKAGE =           0.0000         RIVER LEAKAGE =           0.0000

            TOTAL IN =        4764.9717              TOTAL IN =           0.9630

          OUT:                                     OUT:
          ----                                     ----
             STORAGE =        4160.2803               STORAGE =           0.7705
       CONSTANT HEAD =           0.0000         CONSTANT HEAD =           0.0000
               WELLS =           0.0000                 WELLS =           0.0000
       RIVER LEAKAGE =         602.6140         RIVER LEAKAGE =           0.1923

           TOTAL OUT =        4762.8945             TOTAL OUT =           0.9628

            IN - OUT =           2.0771              IN - OUT =       2.0832E-04

 PERCENT DISCREPANCY =           0.04     PERCENT DISCREPANCY =           0.02






         TIME SUMMARY AT END OF TIME STEP    6 IN STRESS PERIOD    1
                    SECONDS     MINUTES      HOURS       DAYS        YEARS
                    -----------------------------------------------------------
   TIME STEP LENGTH  1655.9      27.598     0.45997     1.91655E-02 5.24722E-05
 STRESS PERIOD TIME  4948.0      82.467      1.3745     5.72691E-02 1.56794E-04
         TOTAL TIME  4948.0      82.467      1.3745     5.72691E-02 1.56794E-04
1
 
 SOLVING FOR HEAD 
     2 CALLS TO PCG ROUTINE FOR TIME STEP   7 IN STRESS PERIOD    1
     9 TOTAL ITERATIONS

 MAXIMUM HEAD CHANGE FOR EACH ITERATION (1 INDICATES THE FIRST INNER ITERATION):

    HEAD CHANGE    HEAD CHANGE    HEAD CHANGE    HEAD CHANGE    HEAD CHANGE 
   LAYER,ROW,COL  LAYER,ROW,COL  LAYER,ROW,COL  LAYER,ROW,COL  LAYER,ROW,COL
 ---------------------------------------------------------------------------
  1  0.7912E-01  0 -0.1120E-01  0  0.7320E-02  0 -0.5110E-02  0  0.4925E-02
   (  1, 45, 19)  (  1, 45, 19)  (  1, 45, 19)  (  1, 45, 19)  (  1, 30, 55)
  0  0.2692E-02  0 -0.1089E-02  0  0.5954E-03  1 -0.3513E-03
   (  1, 29, 56)  (  1, 29, 56)  (  1, 29, 56)  (  1, 29, 56)

 MAXIMUM RESIDUAL FOR EACH ITERATION (1 INDICATES THE FIRST INNER ITERATION):

    RESIDUAL       RESIDUAL       RESIDUAL       RESIDUAL       RESIDUAL    
   LAYER,ROW,COL  LAYER,ROW,COL  LAYER,ROW,COL  LAYER,ROW,COL  LAYER,ROW,COL
 ---------------------------------------------------------------------------
  1  0.6070E-02  0  0.5392E-02  0  0.2482E-02  0 -0.3191E-02  0 -0.8173E-03
   (  1, 31, 51)  (  1, 44, 20)  (  1, 45, 19)  (  1, 30, 55)  (  1, 25, 18)
  0 -0.4926E-03  0 -0.2445E-03  0 -0.1172E-03  1 -0.9784E-04
   (  1, 30, 55)  (  1, 25, 19)  (  1, 33, 50)  (  1, 33, 50)



 OUTPUT CONTROL FOR STRESS PERIOD    1   TIME STEP    7
    SAVE HEAD FOR ALL LAYERS
    SAVE DRAWDOWN FOR ALL LAYERS
    SAVE BUDGET
    PRINT BUDGET
 UBDSV1 SAVING "         STORAGE" ON UNIT   9 AT TIME STEP  7, STRESS PERIOD   1
 UBDSV2 SAVING "   CONSTANT HEAD" ON UNIT   9 AT TIME STEP  7, STRESS PERIOD   1
 UBDSV1 SAVING "FLOW RIGHT FACE " ON UNIT   9 AT TIME STEP  7, STRESS PERIOD   1
 UBDSV1 SAVING "FLOW FRONT FACE " ON UNIT   9 AT TIME STEP  7, STRESS PERIOD   1
 UBDSV4 SAVING "           WELLS" ON UNIT   9 AT TIME STEP  7, STRESS PERIOD   1
 UBDSV4 SAVING "   RIVER LEAKAGE" ON UNIT   9 AT TIME STEP  7, STRESS PERIOD   1

 HEAD WILL BE SAVED ON UNIT   37 AT END OF TIME STEP    7, STRESS PERIOD    1

 DRAWDOWN WILL BE SAVED ON UNIT   38 AT END OF TIME STEP    7, STRESS PERIOD    1
1
  VOLUMETRIC BUDGET FOR ENTIRE MODEL AT END OF TIME STEP    7, STRESS PERIOD   1
  ------------------------------------------------------------------------------

     CUMULATIVE VOLUMES      L**3       RATES FOR THIS TIME STEP      L**3/T
     ------------------                 ------------------------

           IN:                                      IN:
           ---                                      ---
             STORAGE =           0.0000               STORAGE =           0.0000
       CONSTANT HEAD =           0.0000         CONSTANT HEAD =           0.0000
               WELLS =        7019.7759                 WELLS =           0.9630
       RIVER LEAKAGE =           0.0000         RIVER LEAKAGE =           0.0000

            TOTAL IN =        7019.7759              TOTAL IN =           0.9630

          OUT:                                     OUT:
          ----                                     ----
             STORAGE =        5789.5586               STORAGE =           0.6958
       CONSTANT HEAD =           0.0000         CONSTANT HEAD =           0.0000
               WELLS =           0.0000                 WELLS =           0.0000
       RIVER LEAKAGE =        1227.8840         RIVER LEAKAGE =           0.2670

           TOTAL OUT =        7017.4424             TOTAL OUT =           0.9629

            IN - OUT =           2.3335              IN - OUT =       1.0926E-04

 PERCENT DISCREPANCY =           0.03     PERCENT DISCREPANCY =           0.01






         TIME SUMMARY AT END OF TIME STEP    7 IN STRESS PERIOD    1
                    SECONDS     MINUTES      HOURS       DAYS        YEARS
                    -----------------------------------------------------------
   TIME STEP LENGTH  2341.4      39.024     0.65040     2.71000E-02 7.41957E-05
 STRESS PERIOD TIME  7289.5      121.49      2.0249     8.43691E-02 2.30990E-04
         TOTAL TIME  7289.5      121.49      2.0249     8.43691E-02 2.30990E-04
1
 
 SOLVING FOR HEAD 
     2 CALLS TO PCG ROUTINE FOR TIME STEP   8 IN STRESS PERIOD    1
    11 TOTAL ITERATIONS

 MAXIMUM HEAD CHANGE FOR EACH ITERATION (1 INDICATES THE FIRST INNER ITERATION):

    HEAD CHANGE    HEAD CHANGE    HEAD CHANGE    HEAD CHANGE    HEAD CHANGE 
   LAYER,ROW,COL  LAYER,ROW,COL  LAYER,ROW,COL  LAYER,ROW,COL  LAYER,ROW,COL
 ---------------------------------------------------------------------------
  1  0.9459E-01  0  0.1487E-01  0 -0.1255E-01  0  0.5045E-02  0 -0.4456E-02
   (  1, 29, 56)  (  1, 32, 50)  (  1, 30, 55)  (  1, 30, 55)  (  1, 45, 19)
  0  0.3114E-02  0  0.2241E-02  0  0.1562E-02  0 -0.1031E-02  0 -0.5884E-03
   (  1, 29, 56)  (  1, 30, 55)  (  1, 29, 56)  (  1, 29, 56)  (  1, 10, 49)
  1  0.2796E-03
   (  1, 10, 49)

 MAXIMUM RESIDUAL FOR EACH ITERATION (1 INDICATES THE FIRST INNER ITERATION):

    RESIDUAL       RESIDUAL       RESIDUAL       RESIDUAL       RESIDUAL    
   LAYER,ROW,COL  LAYER,ROW,COL  LAYER,ROW,COL  LAYER,ROW,COL  LAYER,ROW,COL
 ---------------------------------------------------------------------------
  1  0.8683E-02  0  0.4782E-02  0 -0.3712E-02  0  0.2274E-02  0  0.1451E-02
   (  1, 31, 51)  (  1, 30, 55)  (  1, 30, 55)  (  1, 45, 19)  (  1, 44, 20)
  0 -0.9179E-03  0  0.6221E-03  0 -0.2855E-03  0 -0.2057E-03  0 -0.1945E-03
   (  1, 25, 19)  (  1, 30, 55)  (  1, 25, 19)  (  1, 37, 49)  (  1, 37, 49)
  1 -0.1062E-03
   (  1, 37, 49)



 OUTPUT CONTROL FOR STRESS PERIOD    1   TIME STEP    8
    SAVE HEAD FOR ALL LAYERS
    SAVE DRAWDOWN FOR ALL LAYERS
    SAVE BUDGET
    PRINT BUDGET
 UBDSV1 SAVING "         STORAGE" ON UNIT   9 AT TIME STEP  8, STRESS PERIOD   1
 UBDSV2 SAVING "   CONSTANT HEAD" ON UNIT   9 AT TIME STEP  8, STRESS PERIOD   1
 UBDSV1 SAVING "FLOW RIGHT FACE " ON UNIT   9 AT TIME STEP  8, STRESS PERIOD   1
 UBDSV1 SAVING "FLOW FRONT FACE " ON UNIT   9 AT TIME STEP  8, STRESS PERIOD   1
 UBDSV4 SAVING "           WELLS" ON UNIT   9 AT TIME STEP  8, STRESS PERIOD   1
 UBDSV4 SAVING "   RIVER LEAKAGE" ON UNIT   9 AT TIME STEP  8, STRESS PERIOD   1

 HEAD WILL BE SAVED ON UNIT   37 AT END OF TIME STEP    8, STRESS PERIOD    1

 DRAWDOWN WILL BE SAVED ON UNIT   38 AT END OF TIME STEP    8, STRESS PERIOD    1
1
  VOLUMETRIC BUDGET FOR ENTIRE MODEL AT END OF TIME STEP    8, STRESS PERIOD   1
  ------------------------------------------------------------------------------

     CUMULATIVE VOLUMES      L**3       RATES FOR THIS TIME STEP      L**3/T
     ------------------                 ------------------------

           IN:                                      IN:
           ---                                      ---
             STORAGE =           0.0000               STORAGE =           0.0000
       CONSTANT HEAD =           0.0000         CONSTANT HEAD =           0.0000
               WELLS =       10208.0693                 WELLS =           0.9630
       RIVER LEAKAGE =           0.0000         RIVER LEAKAGE =           0.0000

            TOTAL IN =       10208.0693              TOTAL IN =           0.9630

          OUT:                                     OUT:
          ----                                     ----
             STORAGE =        7789.0332               STORAGE =           0.6039
       CONSTANT HEAD =           0.0000         CONSTANT HEAD =           0.0000
               WELLS =           0.0000                 WELLS =           0.0000
       RIVER LEAKAGE =        2416.3887         RIVER LEAKAGE =           0.3590

           TOTAL OUT =       10205.4219             TOTAL OUT =           0.9629

            IN - OUT =           2.6475              IN - OUT =       9.4891E-05

 PERCENT DISCREPANCY =           0.03     PERCENT DISCREPANCY =           0.01






         TIME SUMMARY AT END OF TIME STEP    8 IN STRESS PERIOD    1
                    SECONDS     MINUTES      HOURS       DAYS        YEARS
                    -----------------------------------------------------------
   TIME STEP LENGTH  3310.8      55.180     0.91966     3.83194E-02 1.04913E-04
 STRESS PERIOD TIME  10600.      176.67      2.9445     0.12269     3.35903E-04
         TOTAL TIME  10600.      176.67      2.9445     0.12269     3.35903E-04
1
 
 SOLVING FOR HEAD 
     2 CALLS TO PCG ROUTINE FOR TIME STEP   9 IN STRESS PERIOD    1
    13 TOTAL ITERATIONS

 MAXIMUM HEAD CHANGE FOR EACH ITERATION (1 INDICATES THE FIRST INNER ITERATION):

    HEAD CHANGE    HEAD CHANGE    HEAD CHANGE    HEAD CHANGE    HEAD CHANGE 
   LAYER,ROW,COL  LAYER,ROW,COL  LAYER,ROW,COL  LAYER,ROW,COL  LAYER,ROW,COL
 ---------------------------------------------------------------------------
  1  0.1060      0  0.2131E-01  0 -0.1483E-01  0  0.6298E-02  0 -0.9023E-02
   (  1, 29, 56)  (  1, 32, 50)  (  1, 30, 55)  (  1, 45, 18)  (  1, 45, 19)
  0  0.5702E-02  0  0.4762E-02  0  0.3122E-02  0 -0.2163E-02  0 -0.1071E-02
   (  1, 29, 56)  (  1, 30, 55)  (  1, 29, 56)  (  1, 29, 56)  (  1,  8, 49)
  0 -0.1067E-02  0 -0.4370E-03  1  0.2996E-03
   (  1, 12, 39)  (  1,  8, 49)  (  1, 15, 38)

 MAXIMUM RESIDUAL FOR EACH ITERATION (1 INDICATES THE FIRST INNER ITERATION):

    RESIDUAL       RESIDUAL       RESIDUAL       RESIDUAL       RESIDUAL    
   LAYER,ROW,COL  LAYER,ROW,COL  LAYER,ROW,COL  LAYER,ROW,COL  LAYER,ROW,COL
 ---------------------------------------------------------------------------
  1  0.1239E-01  0  0.5483E-02  0 -0.3138E-02  0  0.5391E-02  0 -0.1599E-02
   (  1, 31, 51)  (  1, 30, 55)  (  1, 30, 55)  (  1, 45, 19)  (  1, 25, 18)
  0 -0.1843E-02  0  0.1392E-02  0  0.7640E-03  0 -0.3428E-03  0 -0.3833E-03
   (  1, 30, 55)  (  1, 30, 55)  (  1, 37, 49)  (  1, 26, 37)  (  1, 37, 49)
  0 -0.2999E-03  0 -0.1800E-03  1 -0.1341E-03
   (  1, 37, 49)  (  1, 15, 38)  (  1, 16, 37)



 OUTPUT CONTROL FOR STRESS PERIOD    1   TIME STEP    9
    SAVE HEAD FOR ALL LAYERS
    SAVE DRAWDOWN FOR ALL LAYERS
    SAVE BUDGET
    PRINT BUDGET
 UBDSV1 SAVING "         STORAGE" ON UNIT   9 AT TIME STEP  9, STRESS PERIOD   1
 UBDSV2 SAVING "   CONSTANT HEAD" ON UNIT   9 AT TIME STEP  9, STRESS PERIOD   1
 UBDSV1 SAVING "FLOW RIGHT FACE " ON UNIT   9 AT TIME STEP  9, STRESS PERIOD   1
 UBDSV1 SAVING "FLOW FRONT FACE " ON UNIT   9 AT TIME STEP  9, STRESS PERIOD   1
 UBDSV4 SAVING "           WELLS" ON UNIT   9 AT TIME STEP  9, STRESS PERIOD   1
 UBDSV4 SAVING "   RIVER LEAKAGE" ON UNIT   9 AT TIME STEP  9, STRESS PERIOD   1

 HEAD WILL BE SAVED ON UNIT   37 AT END OF TIME STEP    9, STRESS PERIOD    1

 DRAWDOWN WILL BE SAVED ON UNIT   38 AT END OF TIME STEP    9, STRESS PERIOD    1
1
  VOLUMETRIC BUDGET FOR ENTIRE MODEL AT END OF TIME STEP    9, STRESS PERIOD   1
  ------------------------------------------------------------------------------

     CUMULATIVE VOLUMES      L**3       RATES FOR THIS TIME STEP      L**3/T
     ------------------                 ------------------------

           IN:                                      IN:
           ---                                      ---
             STORAGE =           0.0000               STORAGE =           0.0000
       CONSTANT HEAD =           0.0000         CONSTANT HEAD =           0.0000
               WELLS =       14716.3164                 WELLS =           0.9630
       RIVER LEAKAGE =           0.0000         RIVER LEAKAGE =           0.0000

            TOTAL IN =       14716.3164              TOTAL IN =           0.9630

          OUT:                                     OUT:
          ----                                     ----
             STORAGE =       10115.7607               STORAGE =           0.4970
       CONSTANT HEAD =           0.0000         CONSTANT HEAD =           0.0000
               WELLS =           0.0000                 WELLS =           0.0000
       RIVER LEAKAGE =        4597.5737         RIVER LEAKAGE =           0.4659

           TOTAL OUT =       14713.3340             TOTAL OUT =           0.9629

            IN - OUT =           2.9824              IN - OUT =       7.1406E-05

 PERCENT DISCREPANCY =           0.02     PERCENT DISCREPANCY =           0.01






         TIME SUMMARY AT END OF TIME STEP    9 IN STRESS PERIOD    1
                    SECONDS     MINUTES      HOURS       DAYS        YEARS
                    -----------------------------------------------------------
   TIME STEP LENGTH  4681.5      78.024      1.3004     5.41836E-02 1.48347E-04
 STRESS PERIOD TIME  15282.      254.70      4.2449     0.17687     4.84249E-04
         TOTAL TIME  15282.      254.70      4.2449     0.17687     4.84249E-04
1
 
 SOLVING FOR HEAD 
     2 CALLS TO PCG ROUTINE FOR TIME STEP  10 IN STRESS PERIOD    1
    13 TOTAL ITERATIONS

 MAXIMUM HEAD CHANGE FOR EACH ITERATION (1 INDICATES THE FIRST INNER ITERATION):

    HEAD CHANGE    HEAD CHANGE    HEAD CHANGE    HEAD CHANGE    HEAD CHANGE 
   LAYER,ROW,COL  LAYER,ROW,COL  LAYER,ROW,COL  LAYER,ROW,COL  LAYER,ROW,COL
 ---------------------------------------------------------------------------
  1  0.1122      0  0.2771E-01  0 -0.2002E-01  0  0.1065E-01  0 -0.1188E-01
   (  1, 10, 49)  (  1, 32, 50)  (  1, 29, 56)  (  1, 45, 18)  (  1, 45, 19)
  0  0.6770E-02  0  0.7646E-02  0  0.6010E-02  0 -0.3674E-02  0  0.1529E-02
   (  1, 29, 56)  (  1, 30, 55)  (  1, 29, 56)  (  1, 29, 56)  (  1, 16, 37)
  0 -0.1810E-02  0 -0.8739E-03  1  0.5398E-03
   (  1, 16, 37)  (  1,  8, 49)  (  1, 15, 38)

 MAXIMUM RESIDUAL FOR EACH ITERATION (1 INDICATES THE FIRST INNER ITERATION):

    RESIDUAL       RESIDUAL       RESIDUAL       RESIDUAL       RESIDUAL    
   LAYER,ROW,COL  LAYER,ROW,COL  LAYER,ROW,COL  LAYER,ROW,COL  LAYER,ROW,COL
 ---------------------------------------------------------------------------
  1  0.1498E-01  0 -0.6663E-02  0  0.3847E-02  0  0.6957E-02  0  0.1867E-02
   (  1, 31, 51)  (  1, 31, 54)  (  1, 44, 20)  (  1, 45, 19)  (  1, 30, 55)
  0 -0.2480E-02  0  0.2804E-02  0  0.1669E-02  0 -0.1173E-02  0 -0.5055E-03
   (  1, 30, 55)  (  1, 30, 55)  (  1, 37, 49)  (  1, 16, 37)  (  1, 25, 19)
  0 -0.6019E-03  0 -0.3402E-03  1 -0.2452E-03
   (  1, 37, 49)  (  1, 37, 49)  (  1, 37, 49)



 OUTPUT CONTROL FOR STRESS PERIOD    1   TIME STEP   10
    SAVE HEAD FOR ALL LAYERS
    SAVE DRAWDOWN FOR ALL LAYERS
    SAVE BUDGET
    PRINT BUDGET
 UBDSV1 SAVING "         STORAGE" ON UNIT   9 AT TIME STEP 10, STRESS PERIOD   1
 UBDSV2 SAVING "   CONSTANT HEAD" ON UNIT   9 AT TIME STEP 10, STRESS PERIOD   1
 UBDSV1 SAVING "FLOW RIGHT FACE " ON UNIT   9 AT TIME STEP 10, STRESS PERIOD   1
 UBDSV1 SAVING "FLOW FRONT FACE " ON UNIT   9 AT TIME STEP 10, STRESS PERIOD   1
 UBDSV4 SAVING "           WELLS" ON UNIT   9 AT TIME STEP 10, STRESS PERIOD   1
 UBDSV4 SAVING "   RIVER LEAKAGE" ON UNIT   9 AT TIME STEP 10, STRESS PERIOD   1

 HEAD WILL BE SAVED ON UNIT   37 AT END OF TIME STEP   10, STRESS PERIOD    1

 DRAWDOWN WILL BE SAVED ON UNIT   38 AT END OF TIME STEP   10, STRESS PERIOD    1
1
  VOLUMETRIC BUDGET FOR ENTIRE MODEL AT END OF TIME STEP   10, STRESS PERIOD   1
  ------------------------------------------------------------------------------

     CUMULATIVE VOLUMES      L**3       RATES FOR THIS TIME STEP      L**3/T
     ------------------                 ------------------------

           IN:                                      IN:
           ---                                      ---
             STORAGE =           0.0000               STORAGE =           0.0000
       CONSTANT HEAD =           0.0000         CONSTANT HEAD =           0.0000
               WELLS =       21090.9766                 WELLS =           0.9630
       RIVER LEAKAGE =           0.0000         RIVER LEAKAGE =           0.0000

            TOTAL IN =       21090.9766              TOTAL IN =           0.9630

          OUT:                                     OUT:
          ----                                     ----
             STORAGE =       12638.6152               STORAGE =           0.3811
       CONSTANT HEAD =           0.0000         CONSTANT HEAD =           0.0000
               WELLS =           0.0000                 WELLS =           0.0000
       RIVER LEAKAGE =        8447.8809         RIVER LEAKAGE =           0.5817

           TOTAL OUT =       21086.4961             TOTAL OUT =           0.9628

            IN - OUT =           4.4805              IN - OUT =       2.2650E-04

 PERCENT DISCREPANCY =           0.02     PERCENT DISCREPANCY =           0.02






         TIME SUMMARY AT END OF TIME STEP   10 IN STRESS PERIOD    1
                    SECONDS     MINUTES      HOURS       DAYS        YEARS
                    -----------------------------------------------------------
   TIME STEP LENGTH  6619.6      110.33      1.8388     7.66156E-02 2.09762E-04
 STRESS PERIOD TIME  21901.      365.02      6.0837     0.25349     6.94011E-04
         TOTAL TIME  21901.      365.02      6.0837     0.25349     6.94011E-04
1
 
 SOLVING FOR HEAD 
     3 CALLS TO PCG ROUTINE FOR TIME STEP  11 IN STRESS PERIOD    1
    15 TOTAL ITERATIONS

 MAXIMUM HEAD CHANGE FOR EACH ITERATION (1 INDICATES THE FIRST INNER ITERATION):

    HEAD CHANGE    HEAD CHANGE    HEAD CHANGE    HEAD CHANGE    HEAD CHANGE 
   LAYER,ROW,COL  LAYER,ROW,COL  LAYER,ROW,COL  LAYER,ROW,COL  LAYER,ROW,COL
 ---------------------------------------------------------------------------
  1  0.1024      0  0.4819E-01  0 -0.2158E-01  0  0.1304E-01  0 -0.1206E-01
   (  1, 11, 40)  (  1, 10, 49)  (  1, 29, 56)  (  1, 45, 19)  (  1, 11, 40)
  0  0.8922E-02  0  0.9401E-02  0  0.9097E-02  0 -0.5645E-02  0 -0.2163E-02
   (  1, 29, 56)  (  1, 30, 55)  (  1, 29, 56)  (  1, 29, 56)  (  1,  8, 49)
  0 -0.1919E-02  0 -0.9614E-03  1 -0.1186E-02  0  0.6060E-03  1 -0.4268E-03
   (  1, 16, 37)  (  1, 11, 40)  (  1, 10, 49)  (  1, 31, 51)  (  1, 12, 39)

 MAXIMUM RESIDUAL FOR EACH ITERATION (1 INDICATES THE FIRST INNER ITERATION):

    RESIDUAL       RESIDUAL       RESIDUAL       RESIDUAL       RESIDUAL    
   LAYER,ROW,COL  LAYER,ROW,COL  LAYER,ROW,COL  LAYER,ROW,COL  LAYER,ROW,COL
 ---------------------------------------------------------------------------
  1  0.1564E-01  0 -0.8277E-02  0  0.5441E-02  0  0.6698E-02  0  0.2577E-02
   (  1, 31, 51)  (  1, 31, 54)  (  1, 44, 20)  (  1, 45, 19)  (  1, 30, 55)
  0 -0.2820E-02  0  0.3761E-02  0  0.2379E-02  0  0.1980E-02  0  0.1189E-02
   (  1, 30, 55)  (  1, 23, 37)  (  1, 37, 49)  (  1, 37, 49)  (  1, 37, 49)
  0 -0.5869E-03  0 -0.4543E-03  1 -0.3590E-03  0 -0.2713E-03  1 -0.2515E-03
   (  1, 25, 19)  (  1, 37, 49)  (  1, 24, 17)  (  1, 26, 37)  (  1, 26, 37)



 OUTPUT CONTROL FOR STRESS PERIOD    1   TIME STEP   11
    SAVE HEAD FOR ALL LAYERS
    SAVE DRAWDOWN FOR ALL LAYERS
    SAVE BUDGET
    PRINT BUDGET
 UBDSV1 SAVING "         STORAGE" ON UNIT   9 AT TIME STEP 11, STRESS PERIOD   1
 UBDSV2 SAVING "   CONSTANT HEAD" ON UNIT   9 AT TIME STEP 11, STRESS PERIOD   1
 UBDSV1 SAVING "FLOW RIGHT FACE " ON UNIT   9 AT TIME STEP 11, STRESS PERIOD   1
 UBDSV1 SAVING "FLOW FRONT FACE " ON UNIT   9 AT TIME STEP 11, STRESS PERIOD   1
 UBDSV4 SAVING "           WELLS" ON UNIT   9 AT TIME STEP 11, STRESS PERIOD   1
 UBDSV4 SAVING "   RIVER LEAKAGE" ON UNIT   9 AT TIME STEP 11, STRESS PERIOD   1

 HEAD WILL BE SAVED ON UNIT   37 AT END OF TIME STEP   11, STRESS PERIOD    1

 DRAWDOWN WILL BE SAVED ON UNIT   38 AT END OF TIME STEP   11, STRESS PERIOD    1
1
  VOLUMETRIC BUDGET FOR ENTIRE MODEL AT END OF TIME STEP   11, STRESS PERIOD   1
  ------------------------------------------------------------------------------

     CUMULATIVE VOLUMES      L**3       RATES FOR THIS TIME STEP      L**3/T
     ------------------                 ------------------------

           IN:                                      IN:
           ---                                      ---
             STORAGE =           0.0000               STORAGE =           0.0000
       CONSTANT HEAD =           0.0000         CONSTANT HEAD =           0.0000
               WELLS =       30104.7480                 WELLS =           0.9630
       RIVER LEAKAGE =           0.0000         RIVER LEAKAGE =           0.0000

            TOTAL IN =       30104.7480              TOTAL IN =           0.9630

          OUT:                                     OUT:
          ----                                     ----
             STORAGE =       15133.6572               STORAGE =           0.2666
       CONSTANT HEAD =           0.0000         CONSTANT HEAD =           0.0000
               WELLS =           0.0000                 WELLS =           0.0000
       RIVER LEAKAGE =       14962.4951         RIVER LEAKAGE =           0.6960

           TOTAL OUT =       30096.1523             TOTAL OUT =           0.9626

            IN - OUT =           8.5957              IN - OUT =       4.3964E-04

 PERCENT DISCREPANCY =           0.03     PERCENT DISCREPANCY =           0.05






         TIME SUMMARY AT END OF TIME STEP   11 IN STRESS PERIOD    1
                    SECONDS     MINUTES      HOURS       DAYS        YEARS
                    -----------------------------------------------------------
   TIME STEP LENGTH  9360.1      156.00      2.6000     0.10833     2.96603E-04
 STRESS PERIOD TIME  31261.      521.02      8.6837     0.36182     9.90615E-04
         TOTAL TIME  31261.      521.02      8.6837     0.36182     9.90615E-04
1
 
 SOLVING FOR HEAD 
     2 CALLS TO PCG ROUTINE FOR TIME STEP  12 IN STRESS PERIOD    1
    15 TOTAL ITERATIONS

 MAXIMUM HEAD CHANGE FOR EACH ITERATION (1 INDICATES THE FIRST INNER ITERATION):

    HEAD CHANGE    HEAD CHANGE    HEAD CHANGE    HEAD CHANGE    HEAD CHANGE 
   LAYER,ROW,COL  LAYER,ROW,COL  LAYER,ROW,COL  LAYER,ROW,COL  LAYER,ROW,COL
 ---------------------------------------------------------------------------
  1  0.7916E-01  0  0.4426E-01  0  0.2657E-01  0  0.1582E-01  0 -0.1731E-01
   (  1, 10, 49)  (  1, 11, 48)  (  1, 10, 49)  (  1, 45, 19)  (  1, 10, 49)
  0  0.1252E-01  0  0.8873E-02  0  0.9383E-02  0  0.5014E-02  0 -0.5286E-02
   (  1, 29, 56)  (  1, 30, 55)  (  1, 29, 56)  (  1, 16, 37)  (  1, 10, 49)
  0  0.1399E-02  0 -0.1772E-02  0  0.1429E-02  0 -0.7012E-03  1 -0.4739E-03
   (  1, 29, 56)  (  1, 29, 56)  (  1, 29, 56)  (  1, 43, 27)  (  1, 45, 18)

 MAXIMUM RESIDUAL FOR EACH ITERATION (1 INDICATES THE FIRST INNER ITERATION):

    RESIDUAL       RESIDUAL       RESIDUAL       RESIDUAL       RESIDUAL    
   LAYER,ROW,COL  LAYER,ROW,COL  LAYER,ROW,COL  LAYER,ROW,COL  LAYER,ROW,COL
 ---------------------------------------------------------------------------
  1  0.1327E-01  0 -0.8269E-02  0  0.8714E-02  0  0.4133E-02  0 -0.5048E-02
   (  1, 31, 51)  (  1, 31, 54)  (  1, 44, 20)  (  1, 45, 19)  (  1, 16, 37)
  0 -0.2990E-02  0  0.3971E-02  0  0.3439E-02  0  0.2285E-02  0  0.1912E-02
   (  1, 30, 55)  (  1, 23, 37)  (  1, 23, 37)  (  1, 37, 49)  (  1, 37, 49)
  0 -0.9076E-03  0  0.7486E-03  0  0.6537E-03  0  0.3050E-03  1 -0.2935E-03
   (  1, 25, 19)  (  1, 38, 48)  (  1, 43, 27)  (  1, 43, 42)  (  1, 45, 19)



 OUTPUT CONTROL FOR STRESS PERIOD    1   TIME STEP   12
    SAVE HEAD FOR ALL LAYERS
    SAVE DRAWDOWN FOR ALL LAYERS
    SAVE BUDGET
    PRINT BUDGET
 UBDSV1 SAVING "         STORAGE" ON UNIT   9 AT TIME STEP 12, STRESS PERIOD   1
 UBDSV2 SAVING "   CONSTANT HEAD" ON UNIT   9 AT TIME STEP 12, STRESS PERIOD   1
 UBDSV1 SAVING "FLOW RIGHT FACE " ON UNIT   9 AT TIME STEP 12, STRESS PERIOD   1
 UBDSV1 SAVING "FLOW FRONT FACE " ON UNIT   9 AT TIME STEP 12, STRESS PERIOD   1
 UBDSV4 SAVING "           WELLS" ON UNIT   9 AT TIME STEP 12, STRESS PERIOD   1
 UBDSV4 SAVING "   RIVER LEAKAGE" ON UNIT   9 AT TIME STEP 12, STRESS PERIOD   1

 HEAD WILL BE SAVED ON UNIT   37 AT END OF TIME STEP   12, STRESS PERIOD    1

 DRAWDOWN WILL BE SAVED ON UNIT   38 AT END OF TIME STEP   12, STRESS PERIOD    1
1
  VOLUMETRIC BUDGET FOR ENTIRE MODEL AT END OF TIME STEP   12, STRESS PERIOD   1
  ------------------------------------------------------------------------------

     CUMULATIVE VOLUMES      L**3       RATES FOR THIS TIME STEP      L**3/T
     ------------------                 ------------------------

           IN:                                      IN:
           ---                                      ---
             STORAGE =           0.0000               STORAGE =           0.0000
       CONSTANT HEAD =           0.0000         CONSTANT HEAD =           0.0000
               WELLS =       42850.2188                 WELLS =           0.9630
       RIVER LEAKAGE =           0.0000         RIVER LEAKAGE =           0.0000

            TOTAL IN =       42850.2188              TOTAL IN =           0.9630

          OUT:                                     OUT:
          ----                                     ----
             STORAGE =       17329.5508               STORAGE =           0.1659
       CONSTANT HEAD =           0.0000         CONSTANT HEAD =           0.0000
               WELLS =           0.0000                 WELLS =           0.0000
       RIVER LEAKAGE =       25507.6621         RIVER LEAKAGE =           0.7968

           TOTAL OUT =       42837.2109             TOTAL OUT =           0.9627

            IN - OUT =          13.0078              IN - OUT =       3.3337E-04

 PERCENT DISCREPANCY =           0.03     PERCENT DISCREPANCY =           0.03






         TIME SUMMARY AT END OF TIME STEP   12 IN STRESS PERIOD    1
                    SECONDS     MINUTES      HOURS       DAYS        YEARS
                    -----------------------------------------------------------
   TIME STEP LENGTH  13235.      220.59      3.6764     0.15318     4.19397E-04
 STRESS PERIOD TIME  44497.      741.61      12.360     0.51501     1.41001E-03
         TOTAL TIME  44497.      741.61      12.360     0.51501     1.41001E-03
1
 
 SOLVING FOR HEAD 
     2 CALLS TO PCG ROUTINE FOR TIME STEP  13 IN STRESS PERIOD    1
    16 TOTAL ITERATIONS

 MAXIMUM HEAD CHANGE FOR EACH ITERATION (1 INDICATES THE FIRST INNER ITERATION):

    HEAD CHANGE    HEAD CHANGE    HEAD CHANGE    HEAD CHANGE    HEAD CHANGE 
   LAYER,ROW,COL  LAYER,ROW,COL  LAYER,ROW,COL  LAYER,ROW,COL  LAYER,ROW,COL
 ---------------------------------------------------------------------------
  1  0.4876E-01  0  0.2234E-01  0  0.3756E-01  0 -0.2018E-01  0  0.1304E-01
   (  1, 45, 19)  (  1,  9, 51)  (  1, 10, 49)  (  1, 29, 56)  (  1, 29, 56)
  0 -0.1603E-01  0  0.8026E-02  0  0.9054E-02  0 -0.6295E-02  0  0.6275E-02
   (  1, 10, 49)  (  1, 30, 55)  (  1, 29, 56)  (  1, 16, 37)  (  1, 16, 37)
  0 -0.1336E-02  0  0.1743E-02  0 -0.1079E-02  0  0.1414E-02  0 -0.9204E-03
   (  1,  8, 50)  (  1, 10, 49)  (  1, 12, 39)  (  1, 45, 19)  (  1, 45, 18)
  1 -0.5976E-03
   (  1, 15, 38)

 MAXIMUM RESIDUAL FOR EACH ITERATION (1 INDICATES THE FIRST INNER ITERATION):

    RESIDUAL       RESIDUAL       RESIDUAL       RESIDUAL       RESIDUAL    
   LAYER,ROW,COL  LAYER,ROW,COL  LAYER,ROW,COL  LAYER,ROW,COL  LAYER,ROW,COL
 ---------------------------------------------------------------------------
  1 -0.1604E-01  0  0.9000E-02  0  0.1007E-01  0  0.4523E-02  0 -0.5793E-02
   (  1, 44, 20)  (  1, 44, 26)  (  1, 43, 27)  (  1, 11, 40)  (  1, 43, 27)
  0 -0.2521E-02  0  0.2950E-02  0  0.3708E-02  0 -0.4832E-02  0 -0.2467E-02
   (  1, 30, 55)  (  1, 30, 55)  (  1, 23, 37)  (  1, 16, 37)  (  1, 38, 48)
  0 -0.9144E-03  0  0.1133E-02  0  0.7701E-03  0 -0.7216E-03  0  0.4941E-03
   (  1, 25, 19)  (  1, 39, 48)  (  1, 39, 48)  (  1, 44, 20)  (  1, 44, 38)
  1 -0.4019E-03
   (  1, 25, 19)



 OUTPUT CONTROL FOR STRESS PERIOD    1   TIME STEP   13
    SAVE HEAD FOR ALL LAYERS
    SAVE DRAWDOWN FOR ALL LAYERS
    SAVE BUDGET
    PRINT BUDGET
 UBDSV1 SAVING "         STORAGE" ON UNIT   9 AT TIME STEP 13, STRESS PERIOD   1
 UBDSV2 SAVING "   CONSTANT HEAD" ON UNIT   9 AT TIME STEP 13, STRESS PERIOD   1
 UBDSV1 SAVING "FLOW RIGHT FACE " ON UNIT   9 AT TIME STEP 13, STRESS PERIOD   1
 UBDSV1 SAVING "FLOW FRONT FACE " ON UNIT   9 AT TIME STEP 13, STRESS PERIOD   1
 UBDSV4 SAVING "           WELLS" ON UNIT   9 AT TIME STEP 13, STRESS PERIOD   1
 UBDSV4 SAVING "   RIVER LEAKAGE" ON UNIT   9 AT TIME STEP 13, STRESS PERIOD   1

 HEAD WILL BE SAVED ON UNIT   37 AT END OF TIME STEP   13, STRESS PERIOD    1

 DRAWDOWN WILL BE SAVED ON UNIT   38 AT END OF TIME STEP   13, STRESS PERIOD    1
1
  VOLUMETRIC BUDGET FOR ENTIRE MODEL AT END OF TIME STEP   13, STRESS PERIOD   1
  ------------------------------------------------------------------------------

     CUMULATIVE VOLUMES      L**3       RATES FOR THIS TIME STEP      L**3/T
     ------------------                 ------------------------

           IN:                                      IN:
           ---                                      ---
             STORAGE =           0.0000               STORAGE =           0.0000
       CONSTANT HEAD =           0.0000         CONSTANT HEAD =           0.0000
               WELLS =       60872.3203                 WELLS =           0.9630
       RIVER LEAKAGE =           0.0000         RIVER LEAKAGE =           0.0000

            TOTAL IN =       60872.3203              TOTAL IN =           0.9630

          OUT:                                     OUT:
          ----                                     ----
             STORAGE =       18999.9824               STORAGE =       8.9259E-02
       CONSTANT HEAD =           0.0000         CONSTANT HEAD =           0.0000
               WELLS =           0.0000                 WELLS =           0.0000
       RIVER LEAKAGE =       41851.0469         RIVER LEAKAGE =           0.8733

           TOTAL OUT =       60851.0312             TOTAL OUT =           0.9626

            IN - OUT =          21.2891              IN - OUT =       4.4256E-04

 PERCENT DISCREPANCY =           0.03     PERCENT DISCREPANCY =           0.05






         TIME SUMMARY AT END OF TIME STEP   13 IN STRESS PERIOD    1
                    SECONDS     MINUTES      HOURS       DAYS        YEARS
                    -----------------------------------------------------------
   TIME STEP LENGTH  18715.      311.91      5.1985     0.21660     5.93028E-04
 STRESS PERIOD TIME  63211.      1053.5      17.559     0.73161     2.00304E-03
         TOTAL TIME  63211.      1053.5      17.559     0.73161     2.00304E-03
1
 
 SOLVING FOR HEAD 
     2 CALLS TO PCG ROUTINE FOR TIME STEP  14 IN STRESS PERIOD    1
    16 TOTAL ITERATIONS

 MAXIMUM HEAD CHANGE FOR EACH ITERATION (1 INDICATES THE FIRST INNER ITERATION):

    HEAD CHANGE    HEAD CHANGE    HEAD CHANGE    HEAD CHANGE    HEAD CHANGE 
   LAYER,ROW,COL  LAYER,ROW,COL  LAYER,ROW,COL  LAYER,ROW,COL  LAYER,ROW,COL
 ---------------------------------------------------------------------------
  1  0.9718E-02  0  0.2487E-01  0  0.2140E-01  0  0.2990E-01  0  0.9699E-02
   (  1, 10, 49)  (  1, 45, 19)  (  1, 11, 48)  (  1, 10, 49)  (  1, 15, 38)
  0  0.9217E-02  0  0.7070E-02  0  0.6064E-02  0  0.3819E-02  0  0.4183E-02
   (  1, 31, 53)  (  1, 30, 55)  (  1, 29, 56)  (  1, 30, 55)  (  1, 37, 49)
  0  0.1750E-02  0  0.1184E-02  0 -0.1275E-02  0 -0.1317E-02  0  0.9059E-03
   (  1, 29, 56)  (  1, 31, 53)  (  1, 16, 37)  (  1, 29, 56)  (  1, 45, 19)
  1 -0.8658E-03
   (  1, 45, 19)

 MAXIMUM RESIDUAL FOR EACH ITERATION (1 INDICATES THE FIRST INNER ITERATION):

    RESIDUAL       RESIDUAL       RESIDUAL       RESIDUAL       RESIDUAL    
   LAYER,ROW,COL  LAYER,ROW,COL  LAYER,ROW,COL  LAYER,ROW,COL  LAYER,ROW,COL
 ---------------------------------------------------------------------------
  1 -0.6731E-02  0 -0.4032E-02  0 -0.4058E-02  0  0.2758E-02  0 -0.3988E-02
   (  1, 45, 19)  (  1, 32, 50)  (  1, 15, 38)  (  1, 14, 39)  (  1, 12, 39)
  0 -0.3219E-02  0 -0.1727E-02  0  0.2105E-02  0  0.2368E-02  0  0.2420E-02
   (  1, 43, 27)  (  1, 26, 16)  (  1, 23, 37)  (  1, 23, 37)  (  1, 37, 49)
  0  0.2179E-02  0  0.9833E-03  0 -0.5964E-03  0 -0.5188E-03  0 -0.4866E-03
   (  1, 37, 49)  (  1, 37, 49)  (  1, 25, 19)  (  1, 25, 19)  (  1, 25, 19)
  1 -0.4742E-03
   (  1, 25, 19)



 OUTPUT CONTROL FOR STRESS PERIOD    1   TIME STEP   14
    SAVE HEAD FOR ALL LAYERS
    SAVE DRAWDOWN FOR ALL LAYERS
    SAVE BUDGET
    PRINT BUDGET
 UBDSV1 SAVING "         STORAGE" ON UNIT   9 AT TIME STEP 14, STRESS PERIOD   1
 UBDSV2 SAVING "   CONSTANT HEAD" ON UNIT   9 AT TIME STEP 14, STRESS PERIOD   1
 UBDSV1 SAVING "FLOW RIGHT FACE " ON UNIT   9 AT TIME STEP 14, STRESS PERIOD   1
 UBDSV1 SAVING "FLOW FRONT FACE " ON UNIT   9 AT TIME STEP 14, STRESS PERIOD   1
 UBDSV4 SAVING "           WELLS" ON UNIT   9 AT TIME STEP 14, STRESS PERIOD   1
 UBDSV4 SAVING "   RIVER LEAKAGE" ON UNIT   9 AT TIME STEP 14, STRESS PERIOD   1

 HEAD WILL BE SAVED ON UNIT   37 AT END OF TIME STEP   14, STRESS PERIOD    1

 DRAWDOWN WILL BE SAVED ON UNIT   38 AT END OF TIME STEP   14, STRESS PERIOD    1
1
  VOLUMETRIC BUDGET FOR ENTIRE MODEL AT END OF TIME STEP   14, STRESS PERIOD   1
  ------------------------------------------------------------------------------

     CUMULATIVE VOLUMES      L**3       RATES FOR THIS TIME STEP      L**3/T
     ------------------                 ------------------------

           IN:                                      IN:
           ---                                      ---
             STORAGE =           0.0000               STORAGE =           0.0000
       CONSTANT HEAD =           0.0000         CONSTANT HEAD =           0.0000
               WELLS =       86355.5703                 WELLS =           0.9630
       RIVER LEAKAGE =           0.0000         RIVER LEAKAGE =           0.0000

            TOTAL IN =       86355.5703              TOTAL IN =           0.9630

          OUT:                                     OUT:
          ----                                     ----
             STORAGE =       20066.1406               STORAGE =       4.0290E-02
       CONSTANT HEAD =           0.0000         CONSTANT HEAD =           0.0000
               WELLS =           0.0000                 WELLS =           0.0000
       RIVER LEAKAGE =       66251.4141         RIVER LEAKAGE =           0.9221

           TOTAL OUT =       86317.5547             TOTAL OUT =           0.9624

            IN - OUT =          38.0156              IN - OUT =       6.3193E-04

 PERCENT DISCREPANCY =           0.04     PERCENT DISCREPANCY =           0.07






         TIME SUMMARY AT END OF TIME STEP   14 IN STRESS PERIOD    1
                    SECONDS     MINUTES      HOURS       DAYS        YEARS
                    -----------------------------------------------------------
   TIME STEP LENGTH  26462.      441.04      7.3507     0.30628     8.38541E-04
 STRESS PERIOD TIME  89673.      1494.6      24.909      1.0379     2.84158E-03
         TOTAL TIME  89673.      1494.6      24.909      1.0379     2.84158E-03
1
 
 SOLVING FOR HEAD 
     2 CALLS TO PCG ROUTINE FOR TIME STEP  15 IN STRESS PERIOD    1
    15 TOTAL ITERATIONS

 MAXIMUM HEAD CHANGE FOR EACH ITERATION (1 INDICATES THE FIRST INNER ITERATION):

    HEAD CHANGE    HEAD CHANGE    HEAD CHANGE    HEAD CHANGE    HEAD CHANGE 
   LAYER,ROW,COL  LAYER,ROW,COL  LAYER,ROW,COL  LAYER,ROW,COL  LAYER,ROW,COL
 ---------------------------------------------------------------------------
  1  0.3808E-02  0  0.8470E-02  0  0.1372E-01  0 -0.6149E-02  0  0.6853E-02
   (  1, 45, 19)  (  1, 29, 56)  (  1, 10, 49)  (  1, 29, 56)  (  1, 20, 38)
  0  0.7635E-02  0  0.4073E-02  0  0.4104E-02  0  0.2631E-02  0  0.2917E-02
   (  1, 29, 56)  (  1, 30, 55)  (  1, 29, 56)  (  1, 37, 49)  (  1, 15, 38)
  0 -0.1376E-02  0  0.1238E-02  0  0.1245E-02  0 -0.4354E-03  1  0.6238E-03
   (  1, 15, 38)  (  1,  8, 49)  (  1, 45, 18)  (  1,  8, 50)  (  1, 10, 49)

 MAXIMUM RESIDUAL FOR EACH ITERATION (1 INDICATES THE FIRST INNER ITERATION):

    RESIDUAL       RESIDUAL       RESIDUAL       RESIDUAL       RESIDUAL    
   LAYER,ROW,COL  LAYER,ROW,COL  LAYER,ROW,COL  LAYER,ROW,COL  LAYER,ROW,COL
 ---------------------------------------------------------------------------
  1 -0.2284E-02  0 -0.1956E-02  0 -0.1891E-02  0 -0.1650E-02  0 -0.2797E-02
   (  1, 44, 20)  (  1, 32, 50)  (  1, 38, 48)  (  1, 38, 48)  (  1, 43, 27)
  0 -0.2240E-02  0 -0.2305E-02  0 -0.1881E-02  0  0.1414E-02  0 -0.1548E-02
   (  1, 37, 49)  (  1, 37, 49)  (  1, 37, 49)  (  1, 23, 37)  (  1, 38, 48)
  0 -0.1364E-02  0  0.8579E-03  0 -0.3816E-03  0 -0.3566E-03  1 -0.2556E-03
   (  1, 38, 48)  (  1, 44, 20)  (  1, 44, 38)  (  1, 16, 37)  (  1, 44, 38)



 OUTPUT CONTROL FOR STRESS PERIOD    1   TIME STEP   15
    SAVE HEAD FOR ALL LAYERS
    SAVE DRAWDOWN FOR ALL LAYERS
    SAVE BUDGET
    PRINT BUDGET
 UBDSV1 SAVING "         STORAGE" ON UNIT   9 AT TIME STEP 15, STRESS PERIOD   1
 UBDSV2 SAVING "   CONSTANT HEAD" ON UNIT   9 AT TIME STEP 15, STRESS PERIOD   1
 UBDSV1 SAVING "FLOW RIGHT FACE " ON UNIT   9 AT TIME STEP 15, STRESS PERIOD   1
 UBDSV1 SAVING "FLOW FRONT FACE " ON UNIT   9 AT TIME STEP 15, STRESS PERIOD   1
 UBDSV4 SAVING "           WELLS" ON UNIT   9 AT TIME STEP 15, STRESS PERIOD   1
 UBDSV4 SAVING "   RIVER LEAKAGE" ON UNIT   9 AT TIME STEP 15, STRESS PERIOD   1

 HEAD WILL BE SAVED ON UNIT   37 AT END OF TIME STEP   15, STRESS PERIOD    1

 DRAWDOWN WILL BE SAVED ON UNIT   38 AT END OF TIME STEP   15, STRESS PERIOD    1
1
  VOLUMETRIC BUDGET FOR ENTIRE MODEL AT END OF TIME STEP   15, STRESS PERIOD   1
  ------------------------------------------------------------------------------

     CUMULATIVE VOLUMES      L**3       RATES FOR THIS TIME STEP      L**3/T
     ------------------                 ------------------------

           IN:                                      IN:
           ---                                      ---
             STORAGE =           0.0000               STORAGE =           0.0000
       CONSTANT HEAD =           0.0000         CONSTANT HEAD =           0.0000
               WELLS =      122388.8906                 WELLS =           0.9630
       RIVER LEAKAGE =           0.0000         RIVER LEAKAGE =           0.0000

            TOTAL IN =      122388.8906              TOTAL IN =           0.9630

          OUT:                                     OUT:
          ----                                     ----
             STORAGE =       20621.7012               STORAGE =       1.4848E-02
       CONSTANT HEAD =           0.0000         CONSTANT HEAD =           0.0000
               WELLS =           0.0000                 WELLS =           0.0000
       RIVER LEAKAGE =      101707.8281         RIVER LEAKAGE =           0.9476

           TOTAL OUT =      122329.5312             TOTAL OUT =           0.9624

            IN - OUT =          59.3594              IN - OUT =       5.7036E-04

 PERCENT DISCREPANCY =           0.05     PERCENT DISCREPANCY =           0.06






         TIME SUMMARY AT END OF TIME STEP   15 IN STRESS PERIOD    1
                    SECONDS     MINUTES      HOURS       DAYS        YEARS
                    -----------------------------------------------------------
   TIME STEP LENGTH  37418.      623.63      10.394     0.43308     1.18570E-03
 STRESS PERIOD TIME 1.27091E+05  2118.2      35.303      1.4710     4.02728E-03
         TOTAL TIME 1.27091E+05  2118.2      35.303      1.4710     4.02728E-03
1
 
 SOLVING FOR HEAD 
     2 CALLS TO PCG ROUTINE FOR TIME STEP  16 IN STRESS PERIOD    1
    13 TOTAL ITERATIONS

 MAXIMUM HEAD CHANGE FOR EACH ITERATION (1 INDICATES THE FIRST INNER ITERATION):

    HEAD CHANGE    HEAD CHANGE    HEAD CHANGE    HEAD CHANGE    HEAD CHANGE 
   LAYER,ROW,COL  LAYER,ROW,COL  LAYER,ROW,COL  LAYER,ROW,COL  LAYER,ROW,COL
 ---------------------------------------------------------------------------
  1  0.1079E-02  0  0.2687E-02  0  0.2768E-02  0  0.4104E-02  0  0.2513E-02
   (  1, 11, 48)  (  1, 45, 18)  (  1, 10, 49)  (  1, 11, 48)  (  1, 20, 38)
  0  0.3209E-02  0  0.1976E-02  0  0.2442E-02  0  0.1498E-02  0  0.2406E-02
   (  1, 16, 37)  (  1, 31, 54)  (  1, 29, 56)  (  1, 31, 54)  (  1, 29, 56)
  0  0.1018E-02  0  0.5727E-03  1  0.5116E-03
   (  1, 20, 38)  (  1, 11, 40)  (  1, 30, 55)

 MAXIMUM RESIDUAL FOR EACH ITERATION (1 INDICATES THE FIRST INNER ITERATION):

    RESIDUAL       RESIDUAL       RESIDUAL       RESIDUAL       RESIDUAL    
   LAYER,ROW,COL  LAYER,ROW,COL  LAYER,ROW,COL  LAYER,ROW,COL  LAYER,ROW,COL
 ---------------------------------------------------------------------------
  1 -0.4378E-03  0 -0.9379E-03  0  0.5895E-03  0 -0.7329E-03  0  0.7356E-03
   (  1, 10, 49)  (  1, 44, 20)  (  1, 22, 38)  (  1, 39, 48)  (  1, 44, 38)
  0 -0.1124E-02  0  0.1392E-02  0  0.1334E-02  0 -0.7869E-03  0  0.4633E-03
   (  1, 37, 49)  (  1, 38, 48)  (  1, 38, 48)  (  1, 37, 49)  (  1, 23, 37)
  0  0.3580E-03  0 -0.3953E-03  1  0.1782E-03
   (  1, 43, 42)  (  1, 30, 55)  (  1, 43, 42)



 OUTPUT CONTROL FOR STRESS PERIOD    1   TIME STEP   16
    SAVE HEAD FOR ALL LAYERS
    SAVE DRAWDOWN FOR ALL LAYERS
    SAVE BUDGET
    PRINT BUDGET
 UBDSV1 SAVING "         STORAGE" ON UNIT   9 AT TIME STEP 16, STRESS PERIOD   1
 UBDSV2 SAVING "   CONSTANT HEAD" ON UNIT   9 AT TIME STEP 16, STRESS PERIOD   1
 UBDSV1 SAVING "FLOW RIGHT FACE " ON UNIT   9 AT TIME STEP 16, STRESS PERIOD   1
 UBDSV1 SAVING "FLOW FRONT FACE " ON UNIT   9 AT TIME STEP 16, STRESS PERIOD   1
 UBDSV4 SAVING "           WELLS" ON UNIT   9 AT TIME STEP 16, STRESS PERIOD   1
 UBDSV4 SAVING "   RIVER LEAKAGE" ON UNIT   9 AT TIME STEP 16, STRESS PERIOD   1

 HEAD WILL BE SAVED ON UNIT   37 AT END OF TIME STEP   16, STRESS PERIOD    1

 DRAWDOWN WILL BE SAVED ON UNIT   38 AT END OF TIME STEP   16, STRESS PERIOD    1
1
  VOLUMETRIC BUDGET FOR ENTIRE MODEL AT END OF TIME STEP   16, STRESS PERIOD   1
  ------------------------------------------------------------------------------

     CUMULATIVE VOLUMES      L**3       RATES FOR THIS TIME STEP      L**3/T
     ------------------                 ------------------------

           IN:                                      IN:
           ---                                      ---
             STORAGE =           0.0000               STORAGE =           0.0000
       CONSTANT HEAD =           0.0000         CONSTANT HEAD =           0.0000
               WELLS =      173340.0000                 WELLS =           0.9630
       RIVER LEAKAGE =           0.0000         RIVER LEAKAGE =           0.0000

            TOTAL IN =      173340.0000              TOTAL IN =           0.9630

          OUT:                                     OUT:
          ----                                     ----
             STORAGE =       20847.6113               STORAGE =       4.2698E-03
       CONSTANT HEAD =           0.0000         CONSTANT HEAD =           0.0000
               WELLS =           0.0000                 WELLS =           0.0000
       RIVER LEAKAGE =      152411.0312         RIVER LEAKAGE =           0.9583

           TOTAL OUT =      173258.6406             TOTAL OUT =           0.9626

            IN - OUT =          81.3594              IN - OUT =       4.1580E-04

 PERCENT DISCREPANCY =           0.05     PERCENT DISCREPANCY =           0.04






         TIME SUMMARY AT END OF TIME STEP   16 IN STRESS PERIOD    1
                    SECONDS     MINUTES      HOURS       DAYS        YEARS
                    -----------------------------------------------------------
   TIME STEP LENGTH  52909.      881.81      14.697     0.61237     1.67658E-03
 STRESS PERIOD TIME 1.80000E+05  3000.0      50.000      2.0833     5.70386E-03
         TOTAL TIME 1.80000E+05  3000.0      50.000      2.0833     5.70386E-03
1

 HEAD AND DRAWDOWN OBSERVATIONS
 OBSERVATION       OBSERVED           SIMULATED
   NAME              VALUE              VALUE             DIFFERENCE
 --------------------------------------------------------------------
 ObsWell1__1    0.17000000179       7.15907737613E-02   9.84092280269E-02
 ObsWell1__2    0.25999999046       7.15907737613E-02   0.18840920925    
 ObsWell1__3    0.33000001311       9.91734787822E-02   0.23082652688    
 ObsWell1__4    0.47999998927       0.18438650668       0.29561346769    
 ObsWell1__5    0.56999999285       0.29705432057       0.27294567227    
 ObsWell1__6    0.79000002146       0.62244290113       0.16755712032    
 ObsWell1__7    0.99000000954       0.83680230379       0.15319770575    
 ObsWell1__8     1.1900000572       0.90695053339       0.28304952383    
 ObsWell1__9     1.3300000429       0.91982948780       0.41017055511    
 ObsWell2__1    3.99999991059E-02   7.42702111602E-02  -3.42702120543E-02
 ObsWell2__2    0.11999999732       7.42702111602E-02   4.57297861576E-02
 ObsWell2__3    0.15999999642       0.10107322782       5.89267686009E-02
 ObsWell2__4    0.21999999881       0.18620340526       3.37965935469E-02
 ObsWell2__5    0.28999999166       0.30198636651      -1.19863748550E-02
 ObsWell2__6    0.50999999046       0.63394773006      -0.12394773960    
 ObsWell2__7    0.69999998808       0.85214078426      -0.15214079618    
 ObsWell2__8    0.86000001431       0.92334908247      -6.33490681648E-02
 ObsWell2__9    0.98000001907       0.93650501966       4.34949994087E-02
 ObsWell3__1     0.0000000000       4.45588231087E-02  -4.45588231087E-02
 ObsWell3__2    9.99999977648E-03   4.45588231087E-02  -3.45588251948E-02
 ObsWell3__3    1.99999995530E-02   6.96270763874E-02  -4.96270768344E-02
 ObsWell3__4    7.99999982119E-02   0.15438243747      -7.43824392557E-02
 ObsWell3__5    0.14000000060       0.26890888810      -0.12890888751    
 ObsWell3__6    0.30000001192       0.59687125683      -0.29687124491    
 ObsWell3__7    0.50000000000       0.81235837936      -0.31235837936    
 ObsWell3__8    0.68000000715       0.88291949034      -0.20291948318    
 ObsWell3__9    0.77999997139       0.89583849907      -0.11583852768    

 HEAD/DRAWDOWN SUM OF SQUARED DIFFERENCE:    8.80779E-01

 Run end date and time (yyyy/mm/dd hh:mm:ss): 2017/05/30 17:32:14
 Elapsed run time:  0.078 Seconds

